/*---------------------------------------------------------------------------*\
| =========                 |                                                 |
| \\      /  F ield         | OpenFOAM: The Open Source CFD Toolbox           |
|  \\    /   O peration     | Version:  5.x                                   |
|   \\  /    A nd           | Web:      www.OpenFOAM.org                      |
|    \\/     M anipulation  |                                                 |
\*---------------------------------------------------------------------------*/
Build  : 5.x-68e8507efb72
Exec   : WKPimpleFoam
Date   : Aug 03 2022
Time   : 10:17:54
Host   : "CPU-23"
PID    : 37786
I/O    : uncollated
Case   : /slurm_data/mengyu.wang/OpenFOAM/mengyu.wang-5.0/run/wkPoiseuille
nProcs : 1
sigFpe : Enabling floating point exception trapping (FOAM_SIGFPE).
fileModificationChecking : Monitoring run-time modified files using timeStampMaster (fileModificationSkew 10)
allowSystemOperations : Allowing user-supplied system call operations

// * * * * * * * * * * * * * * * * * * * * * * * * * * * * * * * * * * * * * //
Create time

Create mesh for time = 0


PIMPLE: no residual control data found. Calculations will employ 15 corrector loops

Number of outlets are :1
Patch array 0 is "right"
Reading scalar list store 

Evaluating properties for right
C, R, Z and index are 1.45e-08, 1.45e+08, 11000000, 0.
Reading field p

Reading field U

Reading/calculating face flux field phi

Selecting incompressible transport model Newtonian
Selecting turbulence model type laminar
Selecting laminar stress model Maxwell
MaxwellCoeffs
{
    nuM             1;
    lambda          5;
}

No MRF models present

No finite volume options present


Starting time loop

Reading set description:
    line

Courant Number mean: 0 max: 0
Time = 0.05

Unsteady WK Model Chosen.

PIMPLE: iteration 1
GAMG:  Solving for p, Initial residual = 1, Final residual = 0.028394392, No Iterations 6
time step continuity errors : sum local = 1.8279895e-06, global = -1.3612132e-06, cumulative = -1.3612132e-06
GAMG:  Solving for p, Initial residual = 0.001411669, Final residual = 6.9058797e-05, No Iterations 5
time step continuity errors : sum local = 3.4394693e-06, global = 2.4582981e-06, cumulative = 1.0970849e-06
GAMG:  Solving for p, Initial residual = 0.0037962793, Final residual = 8.7224567e-07, No Iterations 11
time step continuity errors : sum local = 4.1558761e-09, global = 3.5936923e-09, cumulative = 1.1006786e-06
smoothSolver:  Solving for sigmaxx, Initial residual = 1, Final residual = 4.4519598e-05, No Iterations 1
smoothSolver:  Solving for sigmaxy, Initial residual = 1, Final residual = 3.7143602e-05, No Iterations 1
smoothSolver:  Solving for sigmayy, Initial residual = 1, Final residual = 3.8664589e-05, No Iterations 1
smoothSolver:  Solving for sigmazz, Initial residual = 0, Final residual = 0, No Iterations 0
PIMPLE: iteration 2
GAMG:  Solving for p, Initial residual = 0.057766486, Final residual = 0.002180931, No Iterations 2
time step continuity errors : sum local = 6.96997e-07, global = -5.3829399e-07, cumulative = 5.6238459e-07
GAMG:  Solving for p, Initial residual = 0.0042966855, Final residual = 0.0001982169, No Iterations 2
time step continuity errors : sum local = 2.6763357e-07, global = -2.2191867e-07, cumulative = 3.4046591e-07
GAMG:  Solving for p, Initial residual = 0.00071624282, Final residual = 8.9872735e-07, No Iterations 8
time step continuity errors : sum local = 1.5760316e-09, global = 1.2198316e-09, cumulative = 3.4168574e-07
smoothSolver:  Solving for sigmaxx, Initial residual = 0.13367857, Final residual = 1.9098434e-06, No Iterations 1
smoothSolver:  Solving for sigmaxy, Initial residual = 0.20996942, Final residual = 5.8319636e-07, No Iterations 1
smoothSolver:  Solving for sigmayy, Initial residual = 0.55400025, Final residual = 3.5833794e-06, No Iterations 1
smoothSolver:  Solving for sigmazz, Initial residual = 0, Final residual = 0, No Iterations 0
PIMPLE: iteration 3
GAMG:  Solving for p, Initial residual = 0.0015674591, Final residual = 6.8653158e-05, No Iterations 2
time step continuity errors : sum local = 1.0807735e-07, global = 8.6074973e-08, cumulative = 4.2776072e-07
GAMG:  Solving for p, Initial residual = 0.00065414538, Final residual = 3.2160509e-05, No Iterations 3
time step continuity errors : sum local = 4.5398414e-08, global = 3.4937801e-08, cumulative = 4.6269852e-07
GAMG:  Solving for p, Initial residual = 0.00028512783, Final residual = 7.1895151e-07, No Iterations 7
time step continuity errors : sum local = 9.0371286e-10, global = 6.6892047e-10, cumulative = 4.6336744e-07
smoothSolver:  Solving for sigmaxx, Initial residual = 0.12211541, Final residual = 1.9174186e-06, No Iterations 1
smoothSolver:  Solving for sigmaxy, Initial residual = 0.072208782, Final residual = 3.2579793e-07, No Iterations 1
smoothSolver:  Solving for sigmayy, Initial residual = 0.16132251, Final residual = 1.3465038e-06, No Iterations 1
smoothSolver:  Solving for sigmazz, Initial residual = 0, Final residual = 0, No Iterations 0
PIMPLE: iteration 4
GAMG:  Solving for p, Initial residual = 0.00038335296, Final residual = 1.4719904e-05, No Iterations 2
time step continuity errors : sum local = 1.7792177e-08, global = 8.4931867e-09, cumulative = 4.7186063e-07
GAMG:  Solving for p, Initial residual = 0.00019316658, Final residual = 6.3820214e-06, No Iterations 4
time step continuity errors : sum local = 7.6078419e-09, global = 5.1064003e-09, cumulative = 4.7696703e-07
GAMG:  Solving for p, Initial residual = 0.00012059129, Final residual = 9.4930725e-07, No Iterations 6
time step continuity errors : sum local = 1.0859871e-09, global = 8.3238802e-10, cumulative = 4.7779941e-07
smoothSolver:  Solving for sigmaxx, Initial residual = 0.068797814, Final residual = 1.3577119e-06, No Iterations 1
smoothSolver:  Solving for sigmaxy, Initial residual = 0.04772011, Final residual = 1.7255713e-07, No Iterations 1
smoothSolver:  Solving for sigmayy, Initial residual = 0.068404157, Final residual = 9.8511478e-07, No Iterations 1
smoothSolver:  Solving for sigmazz, Initial residual = 0, Final residual = 0, No Iterations 0
PIMPLE: iteration 5
GAMG:  Solving for p, Initial residual = 0.00010630719, Final residual = 3.1637863e-06, No Iterations 4
time step continuity errors : sum local = 3.5211288e-09, global = 2.3980424e-09, cumulative = 4.8019746e-07
GAMG:  Solving for p, Initial residual = 8.2976434e-05, Final residual = 3.3187641e-06, No Iterations 4
time step continuity errors : sum local = 3.6209096e-09, global = 2.5220716e-09, cumulative = 4.8271953e-07
GAMG:  Solving for p, Initial residual = 7.7485419e-05, Final residual = 6.9292986e-07, No Iterations 6
time step continuity errors : sum local = 7.3973275e-10, global = 5.537906e-10, cumulative = 4.8327332e-07
smoothSolver:  Solving for sigmaxx, Initial residual = 0.04338008, Final residual = 9.3841001e-07, No Iterations 1
smoothSolver:  Solving for sigmaxy, Initial residual = 0.032296453, Final residual = 1.3482155e-07, No Iterations 1
smoothSolver:  Solving for sigmayy, Initial residual = 0.045861123, Final residual = 7.4047852e-07, No Iterations 1
smoothSolver:  Solving for sigmazz, Initial residual = 0, Final residual = 0, No Iterations 0
PIMPLE: iteration 6
GAMG:  Solving for p, Initial residual = 5.1862382e-05, Final residual = 2.1591883e-06, No Iterations 4
time step continuity errors : sum local = 2.2604464e-09, global = 1.5398625e-09, cumulative = 4.8481318e-07
GAMG:  Solving for p, Initial residual = 5.3428093e-05, Final residual = 2.2279974e-06, No Iterations 4
time step continuity errors : sum local = 2.3008903e-09, global = 1.5998466e-09, cumulative = 4.8641303e-07
GAMG:  Solving for p, Initial residual = 5.0751387e-05, Final residual = 9.464103e-07, No Iterations 5
time step continuity errors : sum local = 9.6323458e-10, global = 6.9639013e-10, cumulative = 4.8710942e-07
smoothSolver:  Solving for sigmaxx, Initial residual = 0.029097705, Final residual = 6.2715687e-07, No Iterations 1
smoothSolver:  Solving for sigmaxy, Initial residual = 0.022149115, Final residual = 9.5507145e-08, No Iterations 1
smoothSolver:  Solving for sigmayy, Initial residual = 0.031563744, Final residual = 5.1239209e-07, No Iterations 1
smoothSolver:  Solving for sigmazz, Initial residual = 0, Final residual = 0, No Iterations 0
PIMPLE: iteration 7
GAMG:  Solving for p, Initial residual = 3.5439724e-05, Final residual = 1.5296945e-06, No Iterations 4
time step continuity errors : sum local = 1.5368929e-09, global = 1.0537168e-09, cumulative = 4.8816313e-07
GAMG:  Solving for p, Initial residual = 3.5267931e-05, Final residual = 1.5115854e-06, No Iterations 4
time step continuity errors : sum local = 1.5039598e-09, global = 1.0425366e-09, cumulative = 4.8920567e-07
GAMG:  Solving for p, Initial residual = 3.5269557e-05, Final residual = 6.5223003e-07, No Iterations 5
time step continuity errors : sum local = 6.4258709e-10, global = 4.6351234e-10, cumulative = 4.8966918e-07
smoothSolver:  Solving for sigmaxx, Initial residual = 0.020026196, Final residual = 4.4322831e-07, No Iterations 1
smoothSolver:  Solving for sigmaxy, Initial residual = 0.015337845, Final residual = 7.1001249e-08, No Iterations 1
smoothSolver:  Solving for sigmayy, Initial residual = 0.021956527, Final residual = 3.6937018e-07, No Iterations 1
smoothSolver:  Solving for sigmazz, Initial residual = 0, Final residual = 0, No Iterations 0
PIMPLE: iteration 8
GAMG:  Solving for p, Initial residual = 2.3923445e-05, Final residual = 1.0652691e-06, No Iterations 4
time step continuity errors : sum local = 1.0402427e-09, global = 7.122083e-10, cumulative = 4.9038139e-07
GAMG:  Solving for p, Initial residual = 2.4936437e-05, Final residual = 1.0552377e-06, No Iterations 4
time step continuity errors : sum local = 1.0234759e-09, global = 7.0830106e-10, cumulative = 4.9108969e-07
GAMG:  Solving for p, Initial residual = 2.5119045e-05, Final residual = 9.2221522e-07, No Iterations 4
time step continuity errors : sum local = 8.8834426e-10, global = 6.1475299e-10, cumulative = 4.9170445e-07
smoothSolver:  Solving for sigmaxx, Initial residual = 0.014027158, Final residual = 3.1982679e-07, No Iterations 1
smoothSolver:  Solving for sigmaxy, Initial residual = 0.010684109, Final residual = 5.3527476e-08, No Iterations 1
smoothSolver:  Solving for sigmayy, Initial residual = 0.015439262, Final residual = 2.6985659e-07, No Iterations 1
smoothSolver:  Solving for sigmazz, Initial residual = 0, Final residual = 0, No Iterations 0
PIMPLE: iteration 9
GAMG:  Solving for p, Initial residual = 1.7253913e-05, Final residual = 8.0012803e-07, No Iterations 4
time step continuity errors : sum local = 7.6614161e-10, global = 5.292093e-10, cumulative = 4.9223366e-07
GAMG:  Solving for p, Initial residual = 1.7625961e-05, Final residual = 7.224553e-07, No Iterations 4
time step continuity errors : sum local = 6.8819843e-10, global = 4.7427649e-10, cumulative = 4.9270793e-07
GAMG:  Solving for p, Initial residual = 1.7440964e-05, Final residual = 6.4496877e-07, No Iterations 4
time step continuity errors : sum local = 6.1152382e-10, global = 4.2149899e-10, cumulative = 4.9312943e-07
smoothSolver:  Solving for sigmaxx, Initial residual = 0.0099132794, Final residual = 2.2854962e-07, No Iterations 1
smoothSolver:  Solving for sigmaxy, Initial residual = 0.0074770828, Final residual = 4.40525e-08, No Iterations 1
smoothSolver:  Solving for sigmayy, Initial residual = 0.010911766, Final residual = 1.9578904e-07, No Iterations 1
smoothSolver:  Solving for sigmazz, Initial residual = 0, Final residual = 0, No Iterations 0
PIMPLE: iteration 10
GAMG:  Solving for p, Initial residual = 1.2480126e-05, Final residual = 5.6520741e-07, No Iterations 4
time step continuity errors : sum local = 5.3366799e-10, global = 3.6798821e-10, cumulative = 4.9349742e-07
GAMG:  Solving for p, Initial residual = 1.2627212e-05, Final residual = 5.1061885e-07, No Iterations 4
time step continuity errors : sum local = 4.8036767e-10, global = 3.3054682e-10, cumulative = 4.9382797e-07
GAMG:  Solving for p, Initial residual = 1.2929388e-05, Final residual = 9.185573e-07, No Iterations 3
time step continuity errors : sum local = 8.6129225e-10, global = 5.6474069e-10, cumulative = 4.9439271e-07
smoothSolver:  Solving for sigmaxx, Initial residual = 0.0070464997, Final residual = 1.6430422e-07, No Iterations 1
smoothSolver:  Solving for sigmaxy, Initial residual = 0.0052456856, Final residual = 3.0133367e-08, No Iterations 1
smoothSolver:  Solving for sigmayy, Initial residual = 0.0077500006, Final residual = 1.4034131e-07, No Iterations 1
smoothSolver:  Solving for sigmazz, Initial residual = 0, Final residual = 0, No Iterations 0
PIMPLE: iteration 11
GAMG:  Solving for p, Initial residual = 9.8578969e-06, Final residual = 9.1312678e-07, No Iterations 3
time step continuity errors : sum local = 8.5386612e-10, global = 5.6762756e-10, cumulative = 4.9496033e-07
GAMG:  Solving for p, Initial residual = 9.8007061e-06, Final residual = 7.9375059e-07, No Iterations 3
time step continuity errors : sum local = 7.4019002e-10, global = 4.9122147e-10, cumulative = 4.9545156e-07
GAMG:  Solving for p, Initial residual = 9.6061206e-06, Final residual = 6.9214572e-07, No Iterations 3
time step continuity errors : sum local = 6.4389522e-10, global = 4.2476393e-10, cumulative = 4.9587632e-07
smoothSolver:  Solving for sigmaxx, Initial residual = 0.0050229249, Final residual = 1.1694476e-07, No Iterations 1
smoothSolver:  Solving for sigmaxy, Initial residual = 0.0036901545, Final residual = 2.6960768e-08, No Iterations 1
smoothSolver:  Solving for sigmayy, Initial residual = 0.0055064706, Final residual = 1.0110347e-07, No Iterations 1
smoothSolver:  Solving for sigmazz, Initial residual = 0, Final residual = 0, No Iterations 0
PIMPLE: iteration 12
GAMG:  Solving for p, Initial residual = 7.1243861e-06, Final residual = 6.0674612e-07, No Iterations 3
time step continuity errors : sum local = 5.6327673e-10, global = 3.7131363e-10, cumulative = 4.9624763e-07
GAMG:  Solving for p, Initial residual = 7.176606e-06, Final residual = 5.4844118e-07, No Iterations 3
time step continuity errors : sum local = 5.082233e-10, global = 3.3422785e-10, cumulative = 4.9658186e-07
GAMG:  Solving for p, Initial residual = 7.3025303e-06, Final residual = 9.8370867e-07, No Iterations 2
time step continuity errors : sum local = 9.1007392e-10, global = 5.654465e-10, cumulative = 4.9714731e-07
smoothSolver:  Solving for sigmaxx, Initial residual = 0.0035869694, Final residual = 8.3256829e-08, No Iterations 1
smoothSolver:  Solving for sigmaxy, Initial residual = 0.0025971635, Final residual = 2.8301267e-08, No Iterations 1
smoothSolver:  Solving for sigmayy, Initial residual = 0.0039201419, Final residual = 7.4646483e-08, No Iterations 1
smoothSolver:  Solving for sigmazz, Initial residual = 0, Final residual = 0, No Iterations 0
PIMPLE: iteration 13
GAMG:  Solving for p, Initial residual = 6.0050695e-06, Final residual = 5.5002713e-07, No Iterations 3
time step continuity errors : sum local = 5.0822068e-10, global = 3.386744e-10, cumulative = 4.9748598e-07
GAMG:  Solving for p, Initial residual = 5.5396618e-06, Final residual = 7.1492514e-07, No Iterations 2
time step continuity errors : sum local = 6.5947561e-10, global = 4.1211393e-10, cumulative = 4.978981e-07
GAMG:  Solving for p, Initial residual = 5.7144578e-06, Final residual = 8.2948433e-07, No Iterations 2
time step continuity errors : sum local = 7.6445305e-10, global = 4.7558631e-10, cumulative = 4.9837368e-07
smoothSolver:  Solving for sigmaxx, Initial residual = 0.002563814, Final residual = 5.9737898e-08, No Iterations 1
smoothSolver:  Solving for sigmaxy, Initial residual = 0.001831758, Final residual = 2.3720376e-08, No Iterations 1
smoothSolver:  Solving for sigmayy, Initial residual = 0.0027884861, Final residual = 5.358999e-08, No Iterations 1
smoothSolver:  Solving for sigmazz, Initial residual = 0, Final residual = 0, No Iterations 0
PIMPLE: iteration 14
GAMG:  Solving for p, Initial residual = 4.5791183e-06, Final residual = 7.6511894e-07, No Iterations 2
time step continuity errors : sum local = 7.0438652e-10, global = 4.4555042e-10, cumulative = 4.9881923e-07
GAMG:  Solving for p, Initial residual = 4.5560907e-06, Final residual = 6.571792e-07, No Iterations 2
time step continuity errors : sum local = 6.0441407e-10, global = 3.8213472e-10, cumulative = 4.9920137e-07
GAMG:  Solving for p, Initial residual = 4.492329e-06, Final residual = 5.6835945e-07, No Iterations 2
time step continuity errors : sum local = 5.222798e-10, global = 3.2739008e-10, cumulative = 4.9952876e-07
smoothSolver:  Solving for sigmaxx, Initial residual = 0.0018330539, Final residual = 4.2073969e-08, No Iterations 1
smoothSolver:  Solving for sigmaxy, Initial residual = 0.0012924288, Final residual = 1.3941083e-08, No Iterations 1
smoothSolver:  Solving for sigmayy, Initial residual = 0.0019851522, Final residual = 3.7016212e-08, No Iterations 1
smoothSolver:  Solving for sigmazz, Initial residual = 0, Final residual = 0, No Iterations 0
PIMPLE: iteration 15
GAMG:  Solving for p, Initial residual = 3.5687121e-06, Final residual = 9.9061586e-07, No Iterations 1
time step continuity errors : sum local = 9.0963483e-10, global = 5.2748898e-10, cumulative = 5.0005625e-07
GAMG:  Solving for p, Initial residual = 3.9542031e-06, Final residual = 6.9606121e-07, No Iterations 2
time step continuity errors : sum local = 6.3889311e-10, global = 3.9843156e-10, cumulative = 5.0045468e-07
GAMG:  Solving for p, Initial residual = 3.6639122e-06, Final residual = 8.0100757e-07, No Iterations 1
time step continuity errors : sum local = 7.3456037e-10, global = 4.4312556e-10, cumulative = 5.008978e-07
smoothSolver:  Solving for sigmaxx, Initial residual = 0.0013106651, Final residual = 2.9953571e-08, No Iterations 1
smoothSolver:  Solving for sigmaxy, Initial residual = 0.00091109108, Final residual = 7.2428757e-09, No Iterations 1
smoothSolver:  Solving for sigmayy, Initial residual = 0.0014129379, Final residual = 2.5844386e-08, No Iterations 1
smoothSolver:  Solving for sigmazz, Initial residual = 0, Final residual = 0, No Iterations 0
Flowrate for "right" : 0.00015450956
Pressure: 2049.2561 Pa
ExecutionTime = 0.08 s  ClockTime = 0 s

Courant Number mean: 0.015480125 max: 0.022443001
Time = 0.1

Unsteady WK Model Chosen.

PIMPLE: iteration 1
GAMG:  Solving for p, Initial residual = 0.99633678, Final residual = 0.025191803, No Iterations 1
time step continuity errors : sum local = 7.0516273e-05, global = -3.3784903e-05, cumulative = -3.3284005e-05
GAMG:  Solving for p, Initial residual = 0.016366104, Final residual = 0.00050884622, No Iterations 4
time step continuity errors : sum local = 4.4211519e-06, global = -2.8211755e-06, cumulative = -3.6105181e-05
GAMG:  Solving for p, Initial residual = 0.0015898321, Final residual = 9.409617e-07, No Iterations 11
time step continuity errors : sum local = 3.5082905e-08, global = 2.881692e-08, cumulative = -3.6076364e-05
smoothSolver:  Solving for sigmaxx, Initial residual = 0.44388072, Final residual = 2.8022009e-05, No Iterations 1
smoothSolver:  Solving for sigmaxy, Initial residual = 0.49938432, Final residual = 6.6259434e-06, No Iterations 1
smoothSolver:  Solving for sigmayy, Initial residual = 0.49097189, Final residual = 2.1689049e-05, No Iterations 1
smoothSolver:  Solving for sigmazz, Initial residual = 0, Final residual = 0, No Iterations 0
PIMPLE: iteration 2
GAMG:  Solving for p, Initial residual = 0.0037692276, Final residual = 0.00011986518, No Iterations 3
time step continuity errors : sum local = 5.8475018e-07, global = 4.3625007e-07, cumulative = -3.5640114e-05
GAMG:  Solving for p, Initial residual = 0.0018054325, Final residual = 6.2974162e-05, No Iterations 3
time step continuity errors : sum local = 1.8154706e-07, global = 1.4101778e-07, cumulative = -3.5499096e-05
GAMG:  Solving for p, Initial residual = 0.00052031466, Final residual = 5.4088119e-07, No Iterations 7
time step continuity errors : sum local = 1.218216e-09, global = 6.5606153e-10, cumulative = -3.549844e-05
smoothSolver:  Solving for sigmaxx, Initial residual = 0.048998356, Final residual = 3.010938e-06, No Iterations 1
smoothSolver:  Solving for sigmaxy, Initial residual = 0.030260995, Final residual = 1.2279679e-06, No Iterations 1
smoothSolver:  Solving for sigmayy, Initial residual = 0.21035883, Final residual = 5.6195846e-06, No Iterations 1
smoothSolver:  Solving for sigmazz, Initial residual = 0, Final residual = 0, No Iterations 0
PIMPLE: iteration 3
GAMG:  Solving for p, Initial residual = 0.000948749, Final residual = 4.5902511e-05, No Iterations 1
time step continuity errors : sum local = 1.0182812e-07, global = -5.9699019e-09, cumulative = -3.550441e-05
GAMG:  Solving for p, Initial residual = 0.0003751565, Final residual = 1.5843155e-05, No Iterations 3
time step continuity errors : sum local = 3.5086664e-08, global = 1.6486202e-08, cumulative = -3.5487924e-05
GAMG:  Solving for p, Initial residual = 0.00017162842, Final residual = 6.1190169e-07, No Iterations 7
time step continuity errors : sum local = 1.3076672e-09, global = 1.0660668e-09, cumulative = -3.5486857e-05
smoothSolver:  Solving for sigmaxx, Initial residual = 0.029420499, Final residual = 1.7886686e-06, No Iterations 1
smoothSolver:  Solving for sigmaxy, Initial residual = 0.020160659, Final residual = 4.4794839e-07, No Iterations 1
smoothSolver:  Solving for sigmayy, Initial residual = 0.038764149, Final residual = 1.4207396e-06, No Iterations 1
smoothSolver:  Solving for sigmazz, Initial residual = 0, Final residual = 0, No Iterations 0
PIMPLE: iteration 4
GAMG:  Solving for p, Initial residual = 0.00020526089, Final residual = 5.2039566e-06, No Iterations 3
time step continuity errors : sum local = 1.0693253e-08, global = 7.3281723e-09, cumulative = -3.5479529e-05
GAMG:  Solving for p, Initial residual = 0.00010823371, Final residual = 3.4985627e-06, No Iterations 4
time step continuity errors : sum local = 7.0795835e-09, global = 4.9785986e-09, cumulative = -3.5474551e-05
GAMG:  Solving for p, Initial residual = 7.187803e-05, Final residual = 6.2995113e-07, No Iterations 6
time step continuity errors : sum local = 1.2453461e-09, global = 9.301168e-10, cumulative = -3.5473621e-05
smoothSolver:  Solving for sigmaxx, Initial residual = 0.018467156, Final residual = 1.3468163e-06, No Iterations 1
smoothSolver:  Solving for sigmaxy, Initial residual = 0.013759522, Final residual = 3.0378249e-07, No Iterations 1
smoothSolver:  Solving for sigmayy, Initial residual = 0.024183093, Final residual = 1.0468688e-06, No Iterations 1
smoothSolver:  Solving for sigmazz, Initial residual = 0, Final residual = 0, No Iterations 0
PIMPLE: iteration 5
GAMG:  Solving for p, Initial residual = 6.0219274e-05, Final residual = 1.9400311e-06, No Iterations 4
time step continuity errors : sum local = 3.7677672e-09, global = 2.5551354e-09, cumulative = -3.5471065e-05
GAMG:  Solving for p, Initial residual = 4.8937899e-05, Final residual = 1.9769819e-06, No Iterations 4
time step continuity errors : sum local = 3.7928708e-09, global = 2.6336077e-09, cumulative = -3.5468432e-05
GAMG:  Solving for p, Initial residual = 4.4294403e-05, Final residual = 8.191636e-07, No Iterations 5
time step continuity errors : sum local = 1.5513434e-09, global = 1.1213266e-09, cumulative = -3.5467311e-05
smoothSolver:  Solving for sigmaxx, Initial residual = 0.01237656, Final residual = 9.5122849e-07, No Iterations 1
smoothSolver:  Solving for sigmaxy, Initial residual = 0.0095210901, Final residual = 1.9605805e-07, No Iterations 1
smoothSolver:  Solving for sigmayy, Initial residual = 0.01623451, Final residual = 7.4626126e-07, No Iterations 1
smoothSolver:  Solving for sigmazz, Initial residual = 0, Final residual = 0, No Iterations 0
PIMPLE: iteration 6
GAMG:  Solving for p, Initial residual = 2.9603175e-05, Final residual = 1.2913809e-06, No Iterations 4
time step continuity errors : sum local = 2.4183576e-09, global = 1.6551629e-09, cumulative = -3.5465655e-05
GAMG:  Solving for p, Initial residual = 3.0084362e-05, Final residual = 1.2573621e-06, No Iterations 4
time step continuity errors : sum local = 2.335302e-09, global = 1.6176658e-09, cumulative = -3.5464038e-05
GAMG:  Solving for p, Initial residual = 2.9049856e-05, Final residual = 5.3389679e-07, No Iterations 5
time step continuity errors : sum local = 9.8351096e-10, global = 7.092361e-10, cumulative = -3.5463328e-05
smoothSolver:  Solving for sigmaxx, Initial residual = 0.0085664687, Final residual = 6.9094028e-07, No Iterations 1
smoothSolver:  Solving for sigmaxy, Initial residual = 0.0066366161, Final residual = 1.4633837e-07, No Iterations 1
smoothSolver:  Solving for sigmayy, Initial residual = 0.011148306, Final residual = 5.4280692e-07, No Iterations 1
smoothSolver:  Solving for sigmazz, Initial residual = 0, Final residual = 0, No Iterations 0
PIMPLE: iteration 7
GAMG:  Solving for p, Initial residual = 2.0591819e-05, Final residual = 8.5871946e-07, No Iterations 4
time step continuity errors : sum local = 1.5704013e-09, global = 1.0744199e-09, cumulative = -3.5462254e-05
GAMG:  Solving for p, Initial residual = 2.0004236e-05, Final residual = 8.4265178e-07, No Iterations 4
time step continuity errors : sum local = 1.5325902e-09, global = 1.0601856e-09, cumulative = -3.5461194e-05
GAMG:  Solving for p, Initial residual = 1.9857359e-05, Final residual = 7.2901536e-07, No Iterations 4
time step continuity errors : sum local = 1.318656e-09, global = 9.1230452e-10, cumulative = -3.5460282e-05
smoothSolver:  Solving for sigmaxx, Initial residual = 0.0060154861, Final residual = 4.9586095e-07, No Iterations 1
smoothSolver:  Solving for sigmaxy, Initial residual = 0.0046468441, Final residual = 1.0807373e-07, No Iterations 1
smoothSolver:  Solving for sigmayy, Initial residual = 0.0077839895, Final residual = 3.9270057e-07, No Iterations 1
smoothSolver:  Solving for sigmazz, Initial residual = 0, Final residual = 0, No Iterations 0
PIMPLE: iteration 8
GAMG:  Solving for p, Initial residual = 1.3549116e-05, Final residual = 6.2688006e-07, No Iterations 4
time step continuity errors : sum local = 1.1285486e-09, global = 7.7918846e-10, cumulative = -3.5459502e-05
GAMG:  Solving for p, Initial residual = 1.3861202e-05, Final residual = 5.6213368e-07, No Iterations 4
time step continuity errors : sum local = 1.0078861e-09, global = 6.9447522e-10, cumulative = -3.5458808e-05
GAMG:  Solving for p, Initial residual = 1.3510041e-05, Final residual = 4.9886356e-07, No Iterations 4
time step continuity errors : sum local = 8.911943e-10, global = 6.1420471e-10, cumulative = -3.5458194e-05
smoothSolver:  Solving for sigmaxx, Initial residual = 0.0042629717, Final residual = 3.5684349e-07, No Iterations 1
smoothSolver:  Solving for sigmaxy, Initial residual = 0.0032642012, Final residual = 9.7573922e-08, No Iterations 1
smoothSolver:  Solving for sigmayy, Initial residual = 0.0054749823, Final residual = 3.0078502e-07, No Iterations 1
smoothSolver:  Solving for sigmazz, Initial residual = 0, Final residual = 0, No Iterations 0
PIMPLE: iteration 9
GAMG:  Solving for p, Initial residual = 9.7686805e-06, Final residual = 8.7614202e-07, No Iterations 3
time step continuity errors : sum local = 1.5601312e-09, global = 1.0261739e-09, cumulative = -3.5457168e-05
GAMG:  Solving for p, Initial residual = 9.9006706e-06, Final residual = 8.9120537e-07, No Iterations 3
time step continuity errors : sum local = 1.582818e-09, global = 1.0513531e-09, cumulative = -3.5456116e-05
GAMG:  Solving for p, Initial residual = 1.0151093e-05, Final residual = 7.6647098e-07, No Iterations 3
time step continuity errors : sum local = 1.3576136e-09, global = 9.027992e-10, cumulative = -3.5455213e-05
smoothSolver:  Solving for sigmaxx, Initial residual = 0.0030372311, Final residual = 2.5851853e-07, No Iterations 1
smoothSolver:  Solving for sigmaxy, Initial residual = 0.0022964597, Final residual = 6.2858909e-08, No Iterations 1
smoothSolver:  Solving for sigmayy, Initial residual = 0.0038784743, Final residual = 2.0969237e-07, No Iterations 1
smoothSolver:  Solving for sigmazz, Initial residual = 0, Final residual = 0, No Iterations 0
PIMPLE: iteration 10
GAMG:  Solving for p, Initial residual = 7.3650011e-06, Final residual = 6.5302992e-07, No Iterations 3
time step continuity errors : sum local = 1.1539977e-09, global = 7.6387375e-10, cumulative = -3.5454449e-05
GAMG:  Solving for p, Initial residual = 7.2954624e-06, Final residual = 5.8597585e-07, No Iterations 3
time step continuity errors : sum local = 1.0334694e-09, global = 6.8078394e-10, cumulative = -3.5453769e-05
GAMG:  Solving for p, Initial residual = 7.0287828e-06, Final residual = 5.2498233e-07, No Iterations 3
time step continuity errors : sum local = 9.2426853e-10, global = 6.0914159e-10, cumulative = -3.545316e-05
smoothSolver:  Solving for sigmaxx, Initial residual = 0.0021696933, Final residual = 1.8502318e-07, No Iterations 1
smoothSolver:  Solving for sigmaxy, Initial residual = 0.0016186745, Final residual = 5.5071575e-08, No Iterations 1
smoothSolver:  Solving for sigmayy, Initial residual = 0.0027481741, Final residual = 1.5364147e-07, No Iterations 1
smoothSolver:  Solving for sigmazz, Initial residual = 0, Final residual = 0, No Iterations 0
PIMPLE: iteration 11
GAMG:  Solving for p, Initial residual = 5.2754774e-06, Final residual = 9.2186207e-07, No Iterations 2
time step continuity errors : sum local = 1.6204424e-09, global = 1.0132102e-09, cumulative = -3.5452146e-05
GAMG:  Solving for p, Initial residual = 5.536293e-06, Final residual = 5.2542445e-07, No Iterations 3
time step continuity errors : sum local = 9.2250483e-10, global = 6.1443437e-10, cumulative = -3.5451532e-05
GAMG:  Solving for p, Initial residual = 5.3030156e-06, Final residual = 6.8227314e-07, No Iterations 2
time step continuity errors : sum local = 1.1959651e-09, global = 7.4946015e-10, cumulative = -3.5450782e-05
smoothSolver:  Solving for sigmaxx, Initial residual = 0.0015516499, Final residual = 1.3384438e-07, No Iterations 1
smoothSolver:  Solving for sigmaxy, Initial residual = 0.0011410047, Final residual = 4.0500231e-08, No Iterations 1
smoothSolver:  Solving for sigmayy, Initial residual = 0.0019539292, Final residual = 1.1306219e-07, No Iterations 1
smoothSolver:  Solving for sigmazz, Initial residual = 0, Final residual = 0, No Iterations 0
PIMPLE: iteration 12
GAMG:  Solving for p, Initial residual = 4.3471368e-06, Final residual = 7.7747666e-07, No Iterations 2
time step continuity errors : sum local = 1.3616612e-09, global = 8.5184773e-10, cumulative = -3.5449931e-05
GAMG:  Solving for p, Initial residual = 4.2883818e-06, Final residual = 7.285595e-07, No Iterations 2
time step continuity errors : sum local = 1.2747169e-09, global = 8.0603542e-10, cumulative = -3.5449125e-05
GAMG:  Solving for p, Initial residual = 4.1040161e-06, Final residual = 6.2536255e-07, No Iterations 2
time step continuity errors : sum local = 1.0931241e-09, global = 6.9244737e-10, cumulative = -3.5448432e-05
smoothSolver:  Solving for sigmaxx, Initial residual = 0.0011102421, Final residual = 9.567755e-08, No Iterations 1
smoothSolver:  Solving for sigmaxy, Initial residual = 0.0008054107, Final residual = 4.0652853e-08, No Iterations 1
smoothSolver:  Solving for sigmayy, Initial residual = 0.0013873758, Final residual = 8.4490842e-08, No Iterations 1
smoothSolver:  Solving for sigmazz, Initial residual = 0, Final residual = 0, No Iterations 0
PIMPLE: iteration 13
GAMG:  Solving for p, Initial residual = 3.1601946e-06, Final residual = 5.3112065e-07, No Iterations 2
time step continuity errors : sum local = 9.2763562e-10, global = 5.8492235e-10, cumulative = -3.5447847e-05
GAMG:  Solving for p, Initial residual = 3.0374944e-06, Final residual = 9.4104103e-07, No Iterations 1
time step continuity errors : sum local = 1.6424585e-09, global = 9.5117002e-10, cumulative = -3.5446896e-05
GAMG:  Solving for p, Initial residual = 3.4855093e-06, Final residual = 6.6115289e-07, No Iterations 2
time step continuity errors : sum local = 1.1534944e-09, global = 7.200115e-10, cumulative = -3.5446176e-05
smoothSolver:  Solving for sigmaxx, Initial residual = 0.00079430189, Final residual = 6.8743414e-08, No Iterations 1
smoothSolver:  Solving for sigmaxy, Initial residual = 0.00056840771, Final residual = 2.6576449e-08, No Iterations 1
smoothSolver:  Solving for sigmayy, Initial residual = 0.00098677307, Final residual = 5.9858765e-08, No Iterations 1
smoothSolver:  Solving for sigmazz, Initial residual = 0, Final residual = 0, No Iterations 0
PIMPLE: iteration 14
GAMG:  Solving for p, Initial residual = 2.5746858e-06, Final residual = 7.4628747e-07, No Iterations 1
time step continuity errors : sum local = 1.3009146e-09, global = 7.9539109e-10, cumulative = -3.5445381e-05
GAMG:  Solving for p, Initial residual = 2.6457446e-06, Final residual = 9.2800241e-07, No Iterations 1
time step continuity errors : sum local = 1.6171466e-09, global = 9.5393489e-10, cumulative = -3.5444427e-05
GAMG:  Solving for p, Initial residual = 2.7279349e-06, Final residual = 5.050786e-07, No Iterations 2
time step continuity errors : sum local = 8.7980474e-10, global = 5.5754656e-10, cumulative = -3.5443869e-05
smoothSolver:  Solving for sigmaxx, Initial residual = 0.00056829863, Final residual = 4.7889118e-08, No Iterations 1
smoothSolver:  Solving for sigmaxy, Initial residual = 0.00040165391, Final residual = 1.5033548e-08, No Iterations 1
smoothSolver:  Solving for sigmayy, Initial residual = 0.00070080294, Final residual = 3.8756868e-08, No Iterations 1
smoothSolver:  Solving for sigmazz, Initial residual = 0, Final residual = 0, No Iterations 0
PIMPLE: iteration 15
GAMG:  Solving for p, Initial residual = 1.8896303e-06, Final residual = 4.3726355e-07, No Iterations 1
time step continuity errors : sum local = 7.6117197e-10, global = 4.6418041e-10, cumulative = -3.5443405e-05
GAMG:  Solving for p, Initial residual = 1.8782629e-06, Final residual = 5.5491532e-07, No Iterations 1
time step continuity errors : sum local = 9.6579033e-10, global = 5.4526702e-10, cumulative = -3.544286e-05
GAMG:  Solving for p, Initial residual = 2.0143381e-06, Final residual = 6.5713801e-07, No Iterations 1
time step continuity errors : sum local = 1.1434372e-09, global = 6.4830021e-10, cumulative = -3.5442211e-05
smoothSolver:  Solving for sigmaxx, Initial residual = 0.00040610288, Final residual = 3.4048312e-08, No Iterations 1
smoothSolver:  Solving for sigmaxy, Initial residual = 0.00028312876, Final residual = 1.7765875e-08, No Iterations 1
smoothSolver:  Solving for sigmayy, Initial residual = 0.00049788255, Final residual = 3.1525298e-08, No Iterations 1
smoothSolver:  Solving for sigmazz, Initial residual = 0, Final residual = 0, No Iterations 0
Flowrate for "right" : 0.00029389418
Pressure: 4356.8361 Pa
ExecutionTime = 0.14 s  ClockTime = 1 s

Courant Number mean: 0.029444996 max: 0.04271767
Time = 0.15

Unsteady WK Model Chosen.

PIMPLE: iteration 1
GAMG:  Solving for p, Initial residual = 0.99352931, Final residual = 0.017056863, No Iterations 1
time step continuity errors : sum local = 5.3584224e-05, global = -2.9834882e-05, cumulative = -6.5277093e-05
GAMG:  Solving for p, Initial residual = 0.014527817, Final residual = 0.00048501072, No Iterations 4
time step continuity errors : sum local = 3.6044112e-06, global = -2.3573543e-06, cumulative = -6.7634448e-05
GAMG:  Solving for p, Initial residual = 0.0014727495, Final residual = 9.0900142e-07, No Iterations 11
time step continuity errors : sum local = 2.8159769e-08, global = 2.3165192e-08, cumulative = -6.7611282e-05
smoothSolver:  Solving for sigmaxx, Initial residual = 0.30386145, Final residual = 3.8875622e-05, No Iterations 1
smoothSolver:  Solving for sigmaxy, Initial residual = 0.32805216, Final residual = 9.2079816e-06, No Iterations 1
smoothSolver:  Solving for sigmayy, Initial residual = 0.3852283, Final residual = 2.658024e-05, No Iterations 1
smoothSolver:  Solving for sigmazz, Initial residual = 0, Final residual = 0, No Iterations 0
PIMPLE: iteration 2
GAMG:  Solving for p, Initial residual = 0.0030380094, Final residual = 9.6383807e-05, No Iterations 3
time step continuity errors : sum local = 4.7593392e-07, global = 3.5909294e-07, cumulative = -6.7252189e-05
GAMG:  Solving for p, Initial residual = 0.0012965842, Final residual = 4.4416831e-05, No Iterations 3
time step continuity errors : sum local = 1.4693279e-07, global = 1.1485392e-07, cumulative = -6.7137336e-05
GAMG:  Solving for p, Initial residual = 0.00035907093, Final residual = 7.0242862e-07, No Iterations 6
time step continuity errors : sum local = 1.9639728e-09, global = 8.8924201e-10, cumulative = -6.7136446e-05
smoothSolver:  Solving for sigmaxx, Initial residual = 0.017286878, Final residual = 1.9691111e-06, No Iterations 1
smoothSolver:  Solving for sigmaxy, Initial residual = 0.011379438, Final residual = 8.4956177e-07, No Iterations 1
smoothSolver:  Solving for sigmayy, Initial residual = 0.12924304, Final residual = 6.4073707e-06, No Iterations 1
smoothSolver:  Solving for sigmazz, Initial residual = 0, Final residual = 0, No Iterations 0
PIMPLE: iteration 3
GAMG:  Solving for p, Initial residual = 0.0006197849, Final residual = 2.9921852e-05, No Iterations 1
time step continuity errors : sum local = 8.2944889e-08, global = -5.5417768e-09, cumulative = -6.7141988e-05
GAMG:  Solving for p, Initial residual = 0.00024768068, Final residual = 1.0061586e-05, No Iterations 3
time step continuity errors : sum local = 2.7864916e-08, global = 1.2891859e-08, cumulative = -6.7129096e-05
GAMG:  Solving for p, Initial residual = 0.00011029236, Final residual = 7.7376596e-07, No Iterations 6
time step continuity errors : sum local = 2.0957616e-09, global = 1.6817958e-09, cumulative = -6.7127414e-05
smoothSolver:  Solving for sigmaxx, Initial residual = 0.010682614, Final residual = 1.3442054e-06, No Iterations 1
smoothSolver:  Solving for sigmaxy, Initial residual = 0.0076649497, Final residual = 3.4094936e-07, No Iterations 1
smoothSolver:  Solving for sigmayy, Initial residual = 0.016898665, Final residual = 1.1230826e-06, No Iterations 1
smoothSolver:  Solving for sigmazz, Initial residual = 0, Final residual = 0, No Iterations 0
PIMPLE: iteration 4
GAMG:  Solving for p, Initial residual = 0.00012883678, Final residual = 3.3054276e-06, No Iterations 3
time step continuity errors : sum local = 8.7378272e-09, global = 6.0645774e-09, cumulative = -6.712135e-05
GAMG:  Solving for p, Initial residual = 6.7225174e-05, Final residual = 2.1406115e-06, No Iterations 4
time step continuity errors : sum local = 5.6031856e-09, global = 3.9436515e-09, cumulative = -6.7117406e-05
GAMG:  Solving for p, Initial residual = 4.4278722e-05, Final residual = 7.7287514e-07, No Iterations 5
time step continuity errors : sum local = 1.9945109e-09, global = 1.4385874e-09, cumulative = -6.7115968e-05
smoothSolver:  Solving for sigmaxx, Initial residual = 0.0068666334, Final residual = 9.4552344e-07, No Iterations 1
smoothSolver:  Solving for sigmaxy, Initial residual = 0.0052746235, Final residual = 2.6981679e-07, No Iterations 1
smoothSolver:  Solving for sigmayy, Initial residual = 0.010571752, Final residual = 7.8739625e-07, No Iterations 1
smoothSolver:  Solving for sigmazz, Initial residual = 0, Final residual = 0, No Iterations 0
PIMPLE: iteration 5
GAMG:  Solving for p, Initial residual = 3.6783984e-05, Final residual = 1.2173195e-06, No Iterations 4
time step continuity errors : sum local = 3.1085294e-09, global = 2.1279079e-09, cumulative = -6.711384e-05
GAMG:  Solving for p, Initial residual = 2.9622094e-05, Final residual = 1.1746226e-06, No Iterations 4
time step continuity errors : sum local = 2.9763608e-09, global = 2.0650562e-09, cumulative = -6.7111775e-05
GAMG:  Solving for p, Initial residual = 2.6600041e-05, Final residual = 9.8727618e-07, No Iterations 4
time step continuity errors : sum local = 2.4825518e-09, global = 1.7244847e-09, cumulative = -6.711005e-05
smoothSolver:  Solving for sigmaxx, Initial residual = 0.0046674365, Final residual = 6.8636001e-07, No Iterations 1
smoothSolver:  Solving for sigmaxy, Initial residual = 0.0036713355, Final residual = 1.7427795e-07, No Iterations 1
smoothSolver:  Solving for sigmayy, Initial residual = 0.0070742382, Final residual = 5.3247601e-07, No Iterations 1
smoothSolver:  Solving for sigmazz, Initial residual = 0, Final residual = 0, No Iterations 0
PIMPLE: iteration 6
GAMG:  Solving for p, Initial residual = 1.7997908e-05, Final residual = 8.2677139e-07, No Iterations 4
time step continuity errors : sum local = 2.0656242e-09, global = 1.4305389e-09, cumulative = -6.710862e-05
GAMG:  Solving for p, Initial residual = 1.7914122e-05, Final residual = 7.2647062e-07, No Iterations 4
time step continuity errors : sum local = 1.8053253e-09, global = 1.2485482e-09, cumulative = -6.7107371e-05
GAMG:  Solving for p, Initial residual = 1.720428e-05, Final residual = 6.3365438e-07, No Iterations 4
time step continuity errors : sum local = 1.5672721e-09, global = 1.0841785e-09, cumulative = -6.7106287e-05
smoothSolver:  Solving for sigmaxx, Initial residual = 0.0032631732, Final residual = 4.9869324e-07, No Iterations 1
smoothSolver:  Solving for sigmaxy, Initial residual = 0.0025704515, Final residual = 1.5668529e-07, No Iterations 1
smoothSolver:  Solving for sigmayy, Initial residual = 0.0048493414, Final residual = 4.1424969e-07, No Iterations 1
smoothSolver:  Solving for sigmazz, Initial residual = 0, Final residual = 0, No Iterations 0
PIMPLE: iteration 7
GAMG:  Solving for p, Initial residual = 1.2366631e-05, Final residual = 5.4393371e-07, No Iterations 4
time step continuity errors : sum local = 1.3398398e-09, global = 9.2719341e-10, cumulative = -6.710536e-05
GAMG:  Solving for p, Initial residual = 1.1742126e-05, Final residual = 9.7380362e-07, No Iterations 3
time step continuity errors : sum local = 2.3902721e-09, global = 1.5765719e-09, cumulative = -6.7103783e-05
GAMG:  Solving for p, Initial residual = 1.1992815e-05, Final residual = 9.715729e-07, No Iterations 3
time step continuity errors : sum local = 2.3778856e-09, global = 1.5879292e-09, cumulative = -6.7102195e-05
smoothSolver:  Solving for sigmaxx, Initial residual = 0.0023066202, Final residual = 3.6160814e-07, No Iterations 1
smoothSolver:  Solving for sigmaxy, Initial residual = 0.0018050125, Final residual = 1.0026698e-07, No Iterations 1
smoothSolver:  Solving for sigmayy, Initial residual = 0.0033778536, Final residual = 2.8334512e-07, No Iterations 1
smoothSolver:  Solving for sigmazz, Initial residual = 0, Final residual = 0, No Iterations 0
PIMPLE: iteration 8
GAMG:  Solving for p, Initial residual = 8.3409534e-06, Final residual = 8.1233849e-07, No Iterations 3
time step continuity errors : sum local = 1.9823136e-09, global = 1.3267154e-09, cumulative = -6.7100868e-05
GAMG:  Solving for p, Initial residual = 8.3072073e-06, Final residual = 7.0519863e-07, No Iterations 3
time step continuity errors : sum local = 1.7166312e-09, global = 1.1394119e-09, cumulative = -6.7099729e-05
GAMG:  Solving for p, Initial residual = 8.0454633e-06, Final residual = 6.2502989e-07, No Iterations 3
time step continuity errors : sum local = 1.5182535e-09, global = 1.005576e-09, cumulative = -6.7098723e-05
smoothSolver:  Solving for sigmaxx, Initial residual = 0.0016422167, Final residual = 2.5936849e-07, No Iterations 1
smoothSolver:  Solving for sigmaxy, Initial residual = 0.0012711693, Final residual = 8.8045304e-08, No Iterations 1
smoothSolver:  Solving for sigmayy, Initial residual = 0.0023704791, Final residual = 2.1260963e-07, No Iterations 1
smoothSolver:  Solving for sigmazz, Initial residual = 0, Final residual = 0, No Iterations 0
PIMPLE: iteration 9
GAMG:  Solving for p, Initial residual = 5.8616007e-06, Final residual = 5.4651122e-07, No Iterations 3
time step continuity errors : sum local = 1.3250316e-09, global = 8.7918112e-10, cumulative = -6.7097844e-05
GAMG:  Solving for p, Initial residual = 5.6612116e-06, Final residual = 9.8115105e-07, No Iterations 2
time step continuity errors : sum local = 2.3749179e-09, global = 1.4913405e-09, cumulative = -6.7096353e-05
GAMG:  Solving for p, Initial residual = 6.2479803e-06, Final residual = 5.5477623e-07, No Iterations 3
time step continuity errors : sum local = 1.3411849e-09, global = 8.9749031e-10, cumulative = -6.7095455e-05
smoothSolver:  Solving for sigmaxx, Initial residual = 0.0011736237, Final residual = 1.8847912e-07, No Iterations 1
smoothSolver:  Solving for sigmaxy, Initial residual = 0.00089570968, Final residual = 5.440103e-08, No Iterations 1
smoothSolver:  Solving for sigmayy, Initial residual = 0.0016743323, Final residual = 1.4495183e-07, No Iterations 1
smoothSolver:  Solving for sigmazz, Initial residual = 0, Final residual = 0, No Iterations 0
PIMPLE: iteration 10
GAMG:  Solving for p, Initial residual = 4.1945722e-06, Final residual = 7.0071816e-07, No Iterations 2
time step continuity errors : sum local = 1.6911269e-09, global = 1.0726927e-09, cumulative = -6.7094383e-05
GAMG:  Solving for p, Initial residual = 4.4411425e-06, Final residual = 8.1538918e-07, No Iterations 2
time step continuity errors : sum local = 1.9661134e-09, global = 1.2359395e-09, cumulative = -6.7093147e-05
GAMG:  Solving for p, Initial residual = 4.3776525e-06, Final residual = 7.6338478e-07, No Iterations 2
time step continuity errors : sum local = 1.8387947e-09, global = 1.1705728e-09, cumulative = -6.7091976e-05
smoothSolver:  Solving for sigmaxx, Initial residual = 0.00083997041, Final residual = 1.3564313e-07, No Iterations 1
smoothSolver:  Solving for sigmaxy, Initial residual = 0.0006315632, Final residual = 6.3192026e-08, No Iterations 1
smoothSolver:  Solving for sigmayy, Initial residual = 0.0011844861, Final residual = 1.2173269e-07, No Iterations 1
smoothSolver:  Solving for sigmazz, Initial residual = 0, Final residual = 0, No Iterations 0
PIMPLE: iteration 11
GAMG:  Solving for p, Initial residual = 3.3375369e-06, Final residual = 6.4324984e-07, No Iterations 2
time step continuity errors : sum local = 1.5478835e-09, global = 9.9134063e-10, cumulative = -6.7090985e-05
GAMG:  Solving for p, Initial residual = 3.1188331e-06, Final residual = 5.5448692e-07, No Iterations 2
time step continuity errors : sum local = 1.3331707e-09, global = 8.4447971e-10, cumulative = -6.709014e-05
GAMG:  Solving for p, Initial residual = 3.1860129e-06, Final residual = 9.786118e-07, No Iterations 1
time step continuity errors : sum local = 2.351221e-09, global = 1.3839246e-09, cumulative = -6.7088757e-05
smoothSolver:  Solving for sigmaxx, Initial residual = 0.00060166373, Final residual = 9.7761675e-08, No Iterations 1
smoothSolver:  Solving for sigmaxy, Initial residual = 0.00044560007, Final residual = 2.988738e-08, No Iterations 1
smoothSolver:  Solving for sigmayy, Initial residual = 0.00083910732, Final residual = 7.4821717e-08, No Iterations 1
smoothSolver:  Solving for sigmazz, Initial residual = 0, Final residual = 0, No Iterations 0
PIMPLE: iteration 12
GAMG:  Solving for p, Initial residual = 3.0811917e-06, Final residual = 6.8134071e-07, No Iterations 2
time step continuity errors : sum local = 1.6363176e-09, global = 1.0306799e-09, cumulative = -6.7087726e-05
GAMG:  Solving for p, Initial residual = 2.5339702e-06, Final residual = 7.7631829e-07, No Iterations 1
time step continuity errors : sum local = 1.8627742e-09, global = 1.1467048e-09, cumulative = -6.7086579e-05
GAMG:  Solving for p, Initial residual = 2.5769117e-06, Final residual = 9.6327752e-07, No Iterations 1
time step continuity errors : sum local = 2.3105943e-09, global = 1.3797911e-09, cumulative = -6.7085199e-05
smoothSolver:  Solving for sigmaxx, Initial residual = 0.00043099774, Final residual = 7.0365367e-08, No Iterations 1
smoothSolver:  Solving for sigmaxy, Initial residual = 0.00031485147, Final residual = 2.8067283e-08, No Iterations 1
smoothSolver:  Solving for sigmayy, Initial residual = 0.00059526683, Final residual = 5.7120204e-08, No Iterations 1
smoothSolver:  Solving for sigmazz, Initial residual = 0, Final residual = 0, No Iterations 0
PIMPLE: iteration 13
GAMG:  Solving for p, Initial residual = 2.331679e-06, Final residual = 5.1984036e-07, No Iterations 2
time step continuity errors : sum local = 1.2464139e-09, global = 7.9625186e-10, cumulative = -6.7084403e-05
GAMG:  Solving for p, Initial residual = 1.7713856e-06, Final residual = 4.5370252e-07, No Iterations 1
time step continuity errors : sum local = 1.0870932e-09, global = 6.6595986e-10, cumulative = -6.7083737e-05
GAMG:  Solving for p, Initial residual = 1.8099333e-06, Final residual = 5.7390334e-07, No Iterations 1
time step continuity errors : sum local = 1.3748262e-09, global = 7.883064e-10, cumulative = -6.7082949e-05
smoothSolver:  Solving for sigmaxx, Initial residual = 0.00030869672, Final residual = 5.0474322e-08, No Iterations 1
smoothSolver:  Solving for sigmaxy, Initial residual = 0.00022263461, Final residual = 1.5585179e-08, No Iterations 1
smoothSolver:  Solving for sigmayy, Initial residual = 0.00042256762, Final residual = 3.7970033e-08, No Iterations 1
smoothSolver:  Solving for sigmazz, Initial residual = 0, Final residual = 0, No Iterations 0
PIMPLE: iteration 14
GAMG:  Solving for p, Initial residual = 1.6632304e-06, Final residual = 6.7214738e-07, No Iterations 1
time step continuity errors : sum local = 1.6097901e-09, global = 9.3053791e-10, cumulative = -6.7082018e-05
GAMG:  Solving for p, Initial residual = 1.6705349e-06, Final residual = 6.7777622e-07, No Iterations 1
time step continuity errors : sum local = 1.6228103e-09, global = 9.6232842e-10, cumulative = -6.7081056e-05
GAMG:  Solving for p, Initial residual = 1.6205392e-06, Final residual = 6.0179275e-07, No Iterations 1
time step continuity errors : sum local = 1.4404601e-09, global = 8.7402503e-10, cumulative = -6.7080182e-05
smoothSolver:  Solving for sigmaxx, Initial residual = 0.00022075204, Final residual = 3.5305686e-08, No Iterations 1
smoothSolver:  Solving for sigmaxy, Initial residual = 0.00015696826, Final residual = 1.1299951e-08, No Iterations 1
smoothSolver:  Solving for sigmayy, Initial residual = 0.00029977633, Final residual = 2.6535039e-08, No Iterations 1
smoothSolver:  Solving for sigmazz, Initial residual = 0, Final residual = 0, No Iterations 0
PIMPLE: iteration 15
GAMG:  Solving for p, Initial residual = 1.2711664e-06, Final residual = 4.918502e-07, No Iterations 1
time step continuity errors : sum local = 1.1769884e-09, global = 7.2365065e-10, cumulative = -6.7079458e-05
GAMG:  Solving for p, Initial residual = 1.1704506e-06, Final residual = 4.0076826e-07, No Iterations 1
time step continuity errors : sum local = 9.588221e-10, global = 5.8025845e-10, cumulative = -6.7078878e-05
GAMG:  Solving for p, Initial residual = 1.1255879e-06, Final residual = 3.4325562e-07, No Iterations 1
time step continuity errors : sum local = 8.2108104e-10, global = 4.8171025e-10, cumulative = -6.7078396e-05
smoothSolver:  Solving for sigmaxx, Initial residual = 0.0001579147, Final residual = 2.5458305e-08, No Iterations 1
smoothSolver:  Solving for sigmaxy, Initial residual = 0.00011108511, Final residual = 7.934363e-09, No Iterations 1
smoothSolver:  Solving for sigmayy, Initial residual = 0.00021249136, Final residual = 1.9035306e-08, No Iterations 1
smoothSolver:  Solving for sigmazz, Initial residual = 0, Final residual = 0, No Iterations 0
Flowrate for "right" : 0.00040450965
Pressure: 6725.5468 Pa
ExecutionTime = 0.2 s  ClockTime = 1 s

Courant Number mean: 0.04052751 max: 0.058813349
Time = 0.2

Unsteady WK Model Chosen.

PIMPLE: iteration 1
GAMG:  Solving for p, Initial residual = 0.99096838, Final residual = 0.010276599, No Iterations 1
time step continuity errors : sum local = 3.3041108e-05, global = -2.080876e-05, cumulative = -8.7887157e-05
GAMG:  Solving for p, Initial residual = 0.011436727, Final residual = 0.00040455837, No Iterations 4
time step continuity errors : sum local = 2.3554142e-06, global = -1.5714019e-06, cumulative = -8.9458559e-05
GAMG:  Solving for p, Initial residual = 0.0013324062, Final residual = 8.5387208e-07, No Iterations 11
time step continuity errors : sum local = 1.8218314e-08, global = 1.5006912e-08, cumulative = -8.9443552e-05
smoothSolver:  Solving for sigmaxx, Initial residual = 0.22415232, Final residual = 4.0231844e-05, No Iterations 1
smoothSolver:  Solving for sigmaxy, Initial residual = 0.23457147, Final residual = 1.0856369e-05, No Iterations 1
smoothSolver:  Solving for sigmayy, Initial residual = 0.32649639, Final residual = 2.5453558e-05, No Iterations 1
smoothSolver:  Solving for sigmazz, Initial residual = 0, Final residual = 0, No Iterations 0
PIMPLE: iteration 2
GAMG:  Solving for p, Initial residual = 0.0022064088, Final residual = 6.9523974e-05, No Iterations 3
time step continuity errors : sum local = 3.1077085e-07, global = 2.36661e-07, cumulative = -8.9206891e-05
GAMG:  Solving for p, Initial residual = 0.0008355261, Final residual = 2.809425e-05, No Iterations 3
time step continuity errors : sum local = 9.5587835e-08, global = 7.5102459e-08, cumulative = -8.9131788e-05
GAMG:  Solving for p, Initial residual = 0.00022337332, Final residual = 8.6792798e-07, No Iterations 5
time step continuity errors : sum local = 2.6631738e-09, global = 9.5578136e-10, cumulative = -8.9130832e-05
smoothSolver:  Solving for sigmaxx, Initial residual = 0.0066529306, Final residual = 9.9121179e-07, No Iterations 1
smoothSolver:  Solving for sigmaxy, Initial residual = 0.0044231358, Final residual = 4.0037958e-07, No Iterations 1
smoothSolver:  Solving for sigmayy, Initial residual = 0.085276687, Final residual = 5.2479547e-06, No Iterations 1
smoothSolver:  Solving for sigmazz, Initial residual = 0, Final residual = 0, No Iterations 0
PIMPLE: iteration 3
GAMG:  Solving for p, Initial residual = 0.00037021933, Final residual = 1.7856494e-05, No Iterations 1
time step continuity errors : sum local = 5.4545427e-08, global = -3.5628316e-09, cumulative = -8.9134395e-05
GAMG:  Solving for p, Initial residual = 0.00014914353, Final residual = 5.8970294e-06, No Iterations 3
time step continuity errors : sum local = 1.8003138e-08, global = 8.2597061e-09, cumulative = -8.9126136e-05
GAMG:  Solving for p, Initial residual = 6.5079436e-05, Final residual = 8.9535236e-07, No Iterations 5
time step continuity errors : sum local = 2.6983375e-09, global = 2.1290535e-09, cumulative = -8.9124007e-05
smoothSolver:  Solving for sigmaxx, Initial residual = 0.0042961114, Final residual = 7.6817887e-07, No Iterations 1
smoothSolver:  Solving for sigmaxy, Initial residual = 0.0029962635, Final residual = 1.827849e-07, No Iterations 1
smoothSolver:  Solving for sigmayy, Initial residual = 0.0071486085, Final residual = 6.15692e-07, No Iterations 1
smoothSolver:  Solving for sigmazz, Initial residual = 0, Final residual = 0, No Iterations 0
PIMPLE: iteration 4
GAMG:  Solving for p, Initial residual = 7.4764008e-05, Final residual = 1.9858302e-06, No Iterations 3
time step continuity errors : sum local = 5.9032917e-09, global = 4.1634894e-09, cumulative = -8.9119843e-05
GAMG:  Solving for p, Initial residual = 3.8614388e-05, Final residual = 1.2062835e-06, No Iterations 4
time step continuity errors : sum local = 3.5643773e-09, global = 2.5077709e-09, cumulative = -8.9117335e-05
GAMG:  Solving for p, Initial residual = 2.5275655e-05, Final residual = 8.7783541e-07, No Iterations 4
time step continuity errors : sum local = 2.5732829e-09, global = 1.780523e-09, cumulative = -8.9115555e-05
smoothSolver:  Solving for sigmaxx, Initial residual = 0.0026439679, Final residual = 4.9325776e-07, No Iterations 1
smoothSolver:  Solving for sigmaxy, Initial residual = 0.0020653577, Final residual = 1.6745545e-07, No Iterations 1
smoothSolver:  Solving for sigmayy, Initial residual = 0.0044874893, Final residual = 4.3277448e-07, No Iterations 1
smoothSolver:  Solving for sigmazz, Initial residual = 0, Final residual = 0, No Iterations 0
PIMPLE: iteration 5
GAMG:  Solving for p, Initial residual = 2.1056131e-05, Final residual = 7.3617949e-07, No Iterations 4
time step continuity errors : sum local = 2.1458005e-09, global = 1.4862388e-09, cumulative = -8.9114068e-05
GAMG:  Solving for p, Initial residual = 1.6682543e-05, Final residual = 6.4138e-07, No Iterations 4
time step continuity errors : sum local = 1.8606143e-09, global = 1.2890382e-09, cumulative = -8.9112779e-05
GAMG:  Solving for p, Initial residual = 1.4892853e-05, Final residual = 5.4830361e-07, No Iterations 4
time step continuity errors : sum local = 1.5840006e-09, global = 1.098608e-09, cumulative = -8.9111681e-05
smoothSolver:  Solving for sigmaxx, Initial residual = 0.0018072924, Final residual = 3.5610427e-07, No Iterations 1
smoothSolver:  Solving for sigmaxy, Initial residual = 0.0014410723, Final residual = 1.1957322e-07, No Iterations 1
smoothSolver:  Solving for sigmayy, Initial residual = 0.0029956564, Final residual = 2.9947293e-07, No Iterations 1
smoothSolver:  Solving for sigmazz, Initial residual = 0, Final residual = 0, No Iterations 0
PIMPLE: iteration 6
GAMG:  Solving for p, Initial residual = 1.0112576e-05, Final residual = 9.3130926e-07, No Iterations 3
time step continuity errors : sum local = 2.6809133e-09, global = 1.7767151e-09, cumulative = -8.9109904e-05
GAMG:  Solving for p, Initial residual = 1.0411026e-05, Final residual = 9.2559302e-07, No Iterations 3
time step continuity errors : sum local = 2.6570725e-09, global = 1.7805726e-09, cumulative = -8.9108124e-05
GAMG:  Solving for p, Initial residual = 9.9497213e-06, Final residual = 7.767312e-07, No Iterations 3
time step continuity errors : sum local = 2.2234854e-09, global = 1.4919281e-09, cumulative = -8.9106632e-05
smoothSolver:  Solving for sigmaxx, Initial residual = 0.0012684738, Final residual = 2.5863355e-07, No Iterations 1
smoothSolver:  Solving for sigmaxy, Initial residual = 0.00101014, Final residual = 1.0061813e-07, No Iterations 1
smoothSolver:  Solving for sigmayy, Initial residual = 0.0020469981, Final residual = 2.2323259e-07, No Iterations 1
smoothSolver:  Solving for sigmazz, Initial residual = 0, Final residual = 0, No Iterations 0
PIMPLE: iteration 7
GAMG:  Solving for p, Initial residual = 7.1049746e-06, Final residual = 6.4754395e-07, No Iterations 3
time step continuity errors : sum local = 1.8493075e-09, global = 1.2347762e-09, cumulative = -8.9105397e-05
GAMG:  Solving for p, Initial residual = 6.7477123e-06, Final residual = 5.7177665e-07, No Iterations 3
time step continuity errors : sum local = 1.6297423e-09, global = 1.0828634e-09, cumulative = -8.9104314e-05
GAMG:  Solving for p, Initial residual = 6.5923593e-06, Final residual = 5.0557532e-07, No Iterations 3
time step continuity errors : sum local = 1.4385729e-09, global = 9.5661493e-10, cumulative = -8.9103357e-05
smoothSolver:  Solving for sigmaxx, Initial residual = 0.00089938237, Final residual = 1.8861798e-07, No Iterations 1
smoothSolver:  Solving for sigmaxy, Initial residual = 0.00071068042, Final residual = 6.5837629e-08, No Iterations 1
smoothSolver:  Solving for sigmayy, Initial residual = 0.0014211875, Final residual = 1.4903848e-07, No Iterations 1
smoothSolver:  Solving for sigmazz, Initial residual = 0, Final residual = 0, No Iterations 0
PIMPLE: iteration 8
GAMG:  Solving for p, Initial residual = 4.5891592e-06, Final residual = 8.772497e-07, No Iterations 2
time step continuity errors : sum local = 2.4923451e-09, global = 1.5802686e-09, cumulative = -8.9101777e-05
GAMG:  Solving for p, Initial residual = 5.0543653e-06, Final residual = 9.9577784e-07, No Iterations 2
time step continuity errors : sum local = 2.8259363e-09, global = 1.8067465e-09, cumulative = -8.909997e-05
GAMG:  Solving for p, Initial residual = 4.9425161e-06, Final residual = 8.7904932e-07, No Iterations 2
time step continuity errors : sum local = 2.4914563e-09, global = 1.6118192e-09, cumulative = -8.9098359e-05
smoothSolver:  Solving for sigmaxx, Initial residual = 0.00064126067, Final residual = 1.3665157e-07, No Iterations 1
smoothSolver:  Solving for sigmaxy, Initial residual = 0.00050032719, Final residual = 6.7116875e-08, No Iterations 1
smoothSolver:  Solving for sigmayy, Initial residual = 0.00099565924, Final residual = 1.2455587e-07, No Iterations 1
smoothSolver:  Solving for sigmazz, Initial residual = 0, Final residual = 0, No Iterations 0
PIMPLE: iteration 9
GAMG:  Solving for p, Initial residual = 3.6701178e-06, Final residual = 7.1612507e-07, No Iterations 2
time step continuity errors : sum local = 2.0273503e-09, global = 1.3100079e-09, cumulative = -8.9097049e-05
GAMG:  Solving for p, Initial residual = 3.3987252e-06, Final residual = 6.1464953e-07, No Iterations 2
time step continuity errors : sum local = 1.7384484e-09, global = 1.1068895e-09, cumulative = -8.9095942e-05
GAMG:  Solving for p, Initial residual = 3.4213119e-06, Final residual = 5.4954542e-07, No Iterations 2
time step continuity errors : sum local = 1.5530787e-09, global = 9.8313705e-10, cumulative = -8.9094958e-05
smoothSolver:  Solving for sigmaxx, Initial residual = 0.00045910675, Final residual = 9.9451697e-08, No Iterations 1
smoothSolver:  Solving for sigmaxy, Initial residual = 0.00035321209, Final residual = 3.6437263e-08, No Iterations 1
smoothSolver:  Solving for sigmayy, Initial residual = 0.00070101014, Final residual = 7.6941009e-08, No Iterations 1
smoothSolver:  Solving for sigmazz, Initial residual = 0, Final residual = 0, No Iterations 0
PIMPLE: iteration 10
GAMG:  Solving for p, Initial residual = 2.5696225e-06, Final residual = 9.6553482e-07, No Iterations 1
time step continuity errors : sum local = 2.7267843e-09, global = 1.6401233e-09, cumulative = -8.9093318e-05
GAMG:  Solving for p, Initial residual = 3.0417004e-06, Final residual = 6.7896552e-07, No Iterations 2
time step continuity errors : sum local = 1.9166926e-09, global = 1.2173736e-09, cumulative = -8.9092101e-05
GAMG:  Solving for p, Initial residual = 2.5466029e-06, Final residual = 7.7076108e-07, No Iterations 1
time step continuity errors : sum local = 2.1739129e-09, global = 1.3540463e-09, cumulative = -8.9090747e-05
smoothSolver:  Solving for sigmaxx, Initial residual = 0.00032882522, Final residual = 7.1754449e-08, No Iterations 1
smoothSolver:  Solving for sigmaxy, Initial residual = 0.0002489515, Final residual = 3.6836176e-08, No Iterations 1
smoothSolver:  Solving for sigmayy, Initial residual = 0.00049509224, Final residual = 6.2304786e-08, No Iterations 1
smoothSolver:  Solving for sigmazz, Initial residual = 0, Final residual = 0, No Iterations 0
PIMPLE: iteration 11
GAMG:  Solving for p, Initial residual = 2.2058049e-06, Final residual = 9.4113428e-07, No Iterations 1
time step continuity errors : sum local = 2.653546e-09, global = 1.6145723e-09, cumulative = -8.9089132e-05
GAMG:  Solving for p, Initial residual = 2.2722277e-06, Final residual = 5.1120249e-07, No Iterations 2
time step continuity errors : sum local = 1.4407599e-09, global = 9.2537427e-10, cumulative = -8.9088207e-05
GAMG:  Solving for p, Initial residual = 1.8705631e-06, Final residual = 4.4740285e-07, No Iterations 1
time step continuity errors : sum local = 1.2601017e-09, global = 7.7995136e-10, cumulative = -8.9087427e-05
smoothSolver:  Solving for sigmaxx, Initial residual = 0.0002358488, Final residual = 5.2065625e-08, No Iterations 1
smoothSolver:  Solving for sigmaxy, Initial residual = 0.00017607753, Final residual = 1.8599196e-08, No Iterations 1
smoothSolver:  Solving for sigmayy, Initial residual = 0.00035036205, Final residual = 3.8925828e-08, No Iterations 1
smoothSolver:  Solving for sigmazz, Initial residual = 0, Final residual = 0, No Iterations 0
PIMPLE: iteration 12
GAMG:  Solving for p, Initial residual = 1.5169482e-06, Final residual = 5.5609089e-07, No Iterations 1
time step continuity errors : sum local = 1.5659116e-09, global = 9.1805841e-10, cumulative = -8.9086509e-05
GAMG:  Solving for p, Initial residual = 1.580308e-06, Final residual = 6.5844449e-07, No Iterations 1
time step continuity errors : sum local = 1.853698e-09, global = 1.084342e-09, cumulative = -8.9085425e-05
GAMG:  Solving for p, Initial residual = 1.6351267e-06, Final residual = 6.6615461e-07, No Iterations 1
time step continuity errors : sum local = 1.8748814e-09, global = 1.1224697e-09, cumulative = -8.9084302e-05
smoothSolver:  Solving for sigmaxx, Initial residual = 0.00016882366, Final residual = 3.6912597e-08, No Iterations 1
smoothSolver:  Solving for sigmaxy, Initial residual = 0.00012399541, Final residual = 1.5342853e-08, No Iterations 1
smoothSolver:  Solving for sigmayy, Initial residual = 0.00024780592, Final residual = 2.8636169e-08, No Iterations 1
smoothSolver:  Solving for sigmazz, Initial residual = 0, Final residual = 0, No Iterations 0
PIMPLE: iteration 13
GAMG:  Solving for p, Initial residual = 1.3723327e-06, Final residual = 5.868044e-07, No Iterations 1
time step continuity errors : sum local = 1.6510757e-09, global = 1.016035e-09, cumulative = -8.9083286e-05
GAMG:  Solving for p, Initial residual = 1.2304037e-06, Final residual = 4.8136384e-07, No Iterations 1
time step continuity errors : sum local = 1.3540502e-09, global = 8.3987454e-10, cumulative = -8.9082446e-05
GAMG:  Solving for p, Initial residual = 1.1624671e-06, Final residual = 3.9296531e-07, No Iterations 1
time step continuity errors : sum local = 1.1051539e-09, global = 6.7570722e-10, cumulative = -8.9081771e-05
smoothSolver:  Solving for sigmaxx, Initial residual = 0.00012105928, Final residual = 2.6416832e-08, No Iterations 1
smoothSolver:  Solving for sigmaxy, Initial residual = 8.7867976e-05, Final residual = 9.5672635e-09, No Iterations 1
smoothSolver:  Solving for sigmayy, Initial residual = 0.00017565675, Final residual = 1.9654593e-08, No Iterations 1
smoothSolver:  Solving for sigmazz, Initial residual = 0, Final residual = 0, No Iterations 0
PIMPLE: iteration 14
GAMG:  Solving for p, Initial residual = 9.374069e-07, Final residual = 9.374069e-07, No Iterations 0
time step continuity errors : sum local = 2.6358562e-09, global = 1.1674569e-09, cumulative = -8.9080603e-05
GAMG:  Solving for p, Initial residual = 1.4322205e-06, Final residual = 6.2982e-07, No Iterations 1
time step continuity errors : sum local = 1.7709656e-09, global = 1.0033043e-09, cumulative = -8.90796e-05
GAMG:  Solving for p, Initial residual = 1.0905018e-06, Final residual = 4.4492984e-07, No Iterations 1
time step continuity errors : sum local = 1.2507554e-09, global = 7.5380021e-10, cumulative = -8.9078846e-05
smoothSolver:  Solving for sigmaxx, Initial residual = 8.662988e-05, Final residual = 1.8758986e-08, No Iterations 1
smoothSolver:  Solving for sigmaxy, Initial residual = 6.1907646e-05, Final residual = 6.4527786e-09, No Iterations 1
smoothSolver:  Solving for sigmayy, Initial residual = 0.00012444524, Final residual = 1.3585859e-08, No Iterations 1
smoothSolver:  Solving for sigmazz, Initial residual = 0, Final residual = 0, No Iterations 0
PIMPLE: iteration 15
GAMG:  Solving for p, Initial residual = 7.6125809e-07, Final residual = 7.6125809e-07, No Iterations 0
time step continuity errors : sum local = 2.1395779e-09, global = 9.6944179e-10, cumulative = -8.9077877e-05
GAMG:  Solving for p, Initial residual = 1.0578087e-06, Final residual = 4.0101301e-07, No Iterations 1
time step continuity errors : sum local = 1.12708e-09, global = 6.9058133e-10, cumulative = -8.9077186e-05
GAMG:  Solving for p, Initial residual = 7.4948178e-07, Final residual = 7.4948178e-07, No Iterations 0
time step continuity errors : sum local = 2.1061049e-09, global = 8.7479421e-10, cumulative = -8.9076311e-05
smoothSolver:  Solving for sigmaxx, Initial residual = 6.2185388e-05, Final residual = 1.3624152e-08, No Iterations 1
smoothSolver:  Solving for sigmaxy, Initial residual = 4.3678937e-05, Final residual = 4.7730932e-09, No Iterations 1
smoothSolver:  Solving for sigmayy, Initial residual = 8.7920115e-05, Final residual = 9.932852e-09, No Iterations 1
smoothSolver:  Solving for sigmazz, Initial residual = 0, Final residual = 0, No Iterations 0
Flowrate for "right" : 0.00047553036
Pressure: 8925.3545 Pa
ExecutionTime = 0.26 s  ClockTime = 1 s

Courant Number mean: 0.047643036 max: 0.069152192
Time = 0.25

Unsteady WK Model Chosen.

PIMPLE: iteration 1
GAMG:  Solving for p, Initial residual = 0.98821317, Final residual = 0.0036605491, No Iterations 1
time step continuity errors : sum local = 1.0896548e-05, global = -7.73926e-06, cumulative = -9.6815571e-05
GAMG:  Solving for p, Initial residual = 0.0056032757, Final residual = 0.00020941911, No Iterations 4
time step continuity errors : sum local = 8.2173998e-07, global = -5.5891807e-07, cumulative = -9.7374489e-05
GAMG:  Solving for p, Initial residual = 0.0010087341, Final residual = 6.7274396e-07, No Iterations 11
time step continuity errors : sum local = 6.3126465e-09, global = 5.2071169e-09, cumulative = -9.7369282e-05
smoothSolver:  Solving for sigmaxx, Initial residual = 0.17032308, Final residual = 3.3176972e-05, No Iterations 1
smoothSolver:  Solving for sigmaxy, Initial residual = 0.17364559, Final residual = 1.0533992e-05, No Iterations 1
smoothSolver:  Solving for sigmayy, Initial residual = 0.27607363, Final residual = 2.0924055e-05, No Iterations 1
smoothSolver:  Solving for sigmazz, Initial residual = 0, Final residual = 0, No Iterations 0
PIMPLE: iteration 2
GAMG:  Solving for p, Initial residual = 0.00098545168, Final residual = 3.0689614e-05, No Iterations 3
time step continuity errors : sum local = 1.0840147e-07, global = 8.3310116e-08, cumulative = -9.7285972e-05
GAMG:  Solving for p, Initial residual = 0.00031981693, Final residual = 1.0531132e-05, No Iterations 3
time step continuity errors : sum local = 3.3266516e-08, global = 2.6265338e-08, cumulative = -9.7259707e-05
GAMG:  Solving for p, Initial residual = 8.2283795e-05, Final residual = 6.6875953e-07, No Iterations 4
time step continuity errors : sum local = 2.0346154e-09, global = 5.4673567e-10, cumulative = -9.725916e-05
smoothSolver:  Solving for sigmaxx, Initial residual = 0.001885701, Final residual = 2.6823343e-07, No Iterations 1
smoothSolver:  Solving for sigmaxy, Initial residual = 0.001072288, Final residual = 5.7276444e-08, No Iterations 1
smoothSolver:  Solving for sigmayy, Initial residual = 0.055357625, Final residual = 2.2054191e-06, No Iterations 1
smoothSolver:  Solving for sigmazz, Initial residual = 0, Final residual = 0, No Iterations 0
PIMPLE: iteration 3
GAMG:  Solving for p, Initial residual = 0.0001315615, Final residual = 6.4475529e-06, No Iterations 1
time step continuity errors : sum local = 1.9588537e-08, global = -1.0260081e-09, cumulative = -9.7260186e-05
GAMG:  Solving for p, Initial residual = 5.3392855e-05, Final residual = 2.0801203e-06, No Iterations 3
time step continuity errors : sum local = 6.3181461e-09, global = 2.8910493e-09, cumulative = -9.7257295e-05
GAMG:  Solving for p, Initial residual = 2.294461e-05, Final residual = 6.1148536e-07, No Iterations 4
time step continuity errors : sum local = 1.8488862e-09, global = 1.4369851e-09, cumulative = -9.7255858e-05
smoothSolver:  Solving for sigmaxx, Initial residual = 0.0011111118, Final residual = 2.1704558e-07, No Iterations 1
smoothSolver:  Solving for sigmaxy, Initial residual = 0.00072744137, Final residual = 5.3109126e-08, No Iterations 1
smoothSolver:  Solving for sigmayy, Initial residual = 0.0018251623, Final residual = 1.613977e-07, No Iterations 1
smoothSolver:  Solving for sigmazz, Initial residual = 0, Final residual = 0, No Iterations 0
PIMPLE: iteration 4
GAMG:  Solving for p, Initial residual = 2.5962498e-05, Final residual = 7.4275924e-07, No Iterations 3
time step continuity errors : sum local = 2.2357344e-09, global = 1.610436e-09, cumulative = -9.7254247e-05
GAMG:  Solving for p, Initial residual = 1.3238917e-05, Final residual = 8.0959509e-07, No Iterations 3
time step continuity errors : sum local = 2.4312791e-09, global = 1.6367707e-09, cumulative = -9.7252611e-05
GAMG:  Solving for p, Initial residual = 9.0048886e-06, Final residual = 6.859217e-07, No Iterations 3
time step continuity errors : sum local = 2.0548516e-09, global = 1.3764023e-09, cumulative = -9.7251234e-05
smoothSolver:  Solving for sigmaxx, Initial residual = 0.000634571, Final residual = 1.3197831e-07, No Iterations 1
smoothSolver:  Solving for sigmaxy, Initial residual = 0.00050175542, Final residual = 5.4180736e-08, No Iterations 1
smoothSolver:  Solving for sigmayy, Initial residual = 0.0011377124, Final residual = 1.2114338e-07, No Iterations 1
smoothSolver:  Solving for sigmazz, Initial residual = 0, Final residual = 0, No Iterations 0
PIMPLE: iteration 5
GAMG:  Solving for p, Initial residual = 7.4038012e-06, Final residual = 5.4530447e-07, No Iterations 3
time step continuity errors : sum local = 1.6302103e-09, global = 1.0960307e-09, cumulative = -9.7250138e-05
GAMG:  Solving for p, Initial residual = 5.8454769e-06, Final residual = 9.2148104e-07, No Iterations 2
time step continuity errors : sum local = 2.7502765e-09, global = 1.7551365e-09, cumulative = -9.7248383e-05
GAMG:  Solving for p, Initial residual = 5.5801712e-06, Final residual = 5.0562613e-07, No Iterations 3
time step continuity errors : sum local = 1.5073377e-09, global = 1.017991e-09, cumulative = -9.7247365e-05
smoothSolver:  Solving for sigmaxx, Initial residual = 0.00043579358, Final residual = 9.8124438e-08, No Iterations 1
smoothSolver:  Solving for sigmaxy, Initial residual = 0.00035059179, Final residual = 3.5514565e-08, No Iterations 1
smoothSolver:  Solving for sigmayy, Initial residual = 0.00075879795, Final residual = 7.8015269e-08, No Iterations 1
smoothSolver:  Solving for sigmazz, Initial residual = 0, Final residual = 0, No Iterations 0
PIMPLE: iteration 6
GAMG:  Solving for p, Initial residual = 3.5910772e-06, Final residual = 6.0824569e-07, No Iterations 2
time step continuity errors : sum local = 1.8104513e-09, global = 1.1667251e-09, cumulative = -9.7246198e-05
GAMG:  Solving for p, Initial residual = 3.7130582e-06, Final residual = 6.9182072e-07, No Iterations 2
time step continuity errors : sum local = 2.0576108e-09, global = 1.3152893e-09, cumulative = -9.7244883e-05
GAMG:  Solving for p, Initial residual = 3.6322763e-06, Final residual = 6.3410373e-07, No Iterations 2
time step continuity errors : sum local = 1.8842762e-09, global = 1.2193044e-09, cumulative = -9.7243664e-05
smoothSolver:  Solving for sigmaxx, Initial residual = 0.00030632761, Final residual = 7.1310899e-08, No Iterations 1
smoothSolver:  Solving for sigmaxy, Initial residual = 0.00024588124, Final residual = 4.0586495e-08, No Iterations 1
smoothSolver:  Solving for sigmayy, Initial residual = 0.00051733831, Final residual = 7.0590444e-08, No Iterations 1
smoothSolver:  Solving for sigmazz, Initial residual = 0, Final residual = 0, No Iterations 0
PIMPLE: iteration 7
GAMG:  Solving for p, Initial residual = 2.7017036e-06, Final residual = 5.2157175e-07, No Iterations 2
time step continuity errors : sum local = 1.5486011e-09, global = 1.008515e-09, cumulative = -9.7242655e-05
GAMG:  Solving for p, Initial residual = 2.4769073e-06, Final residual = 8.7229676e-07, No Iterations 1
time step continuity errors : sum local = 2.5881772e-09, global = 1.5904617e-09, cumulative = -9.7241065e-05
GAMG:  Solving for p, Initial residual = 2.7867133e-06, Final residual = 6.0361532e-07, No Iterations 2
time step continuity errors : sum local = 1.7903118e-09, global = 1.1469552e-09, cumulative = -9.7239918e-05
smoothSolver:  Solving for sigmaxx, Initial residual = 0.00021755564, Final residual = 5.1711662e-08, No Iterations 1
smoothSolver:  Solving for sigmaxy, Initial residual = 0.00017309463, Final residual = 1.9440155e-08, No Iterations 1
smoothSolver:  Solving for sigmayy, Initial residual = 0.00035846526, Final residual = 3.8938401e-08, No Iterations 1
smoothSolver:  Solving for sigmazz, Initial residual = 0, Final residual = 0, No Iterations 0
PIMPLE: iteration 8
GAMG:  Solving for p, Initial residual = 1.8387398e-06, Final residual = 6.6559269e-07, No Iterations 1
time step continuity errors : sum local = 1.9725916e-09, global = 1.2515161e-09, cumulative = -9.7238666e-05
GAMG:  Solving for p, Initial residual = 1.9622686e-06, Final residual = 8.1817747e-07, No Iterations 1
time step continuity errors : sum local = 2.4240909e-09, global = 1.495086e-09, cumulative = -9.7237171e-05
GAMG:  Solving for p, Initial residual = 2.0567842e-06, Final residual = 8.8491007e-07, No Iterations 1
time step continuity errors : sum local = 2.6208815e-09, global = 1.6107104e-09, cumulative = -9.7235561e-05
smoothSolver:  Solving for sigmaxx, Initial residual = 0.00015525521, Final residual = 3.757551e-08, No Iterations 1
smoothSolver:  Solving for sigmaxy, Initial residual = 0.00012184956, Final residual = 2.0633405e-08, No Iterations 1
smoothSolver:  Solving for sigmayy, Initial residual = 0.00025030012, Final residual = 3.3278095e-08, No Iterations 1
smoothSolver:  Solving for sigmazz, Initial residual = 0, Final residual = 0, No Iterations 0
PIMPLE: iteration 9
GAMG:  Solving for p, Initial residual = 1.8083328e-06, Final residual = 8.2004976e-07, No Iterations 1
time step continuity errors : sum local = 2.4278522e-09, global = 1.513085e-09, cumulative = -9.7234048e-05
GAMG:  Solving for p, Initial residual = 1.6190375e-06, Final residual = 6.8827701e-07, No Iterations 1
time step continuity errors : sum local = 2.0369921e-09, global = 1.2803177e-09, cumulative = -9.7232767e-05
GAMG:  Solving for p, Initial residual = 1.4742695e-06, Final residual = 5.5535719e-07, No Iterations 1
time step continuity errors : sum local = 1.6431093e-09, global = 1.0296058e-09, cumulative = -9.7231738e-05
smoothSolver:  Solving for sigmaxx, Initial residual = 0.00011133382, Final residual = 2.7211696e-08, No Iterations 1
smoothSolver:  Solving for sigmaxy, Initial residual = 8.6241658e-05, Final residual = 1.0131569e-08, No Iterations 1
smoothSolver:  Solving for sigmayy, Initial residual = 0.00017637526, Final residual = 1.9817659e-08, No Iterations 1
smoothSolver:  Solving for sigmazz, Initial residual = 0, Final residual = 0, No Iterations 0
PIMPLE: iteration 10
GAMG:  Solving for p, Initial residual = 1.1392429e-06, Final residual = 4.5443239e-07, No Iterations 1
time step continuity errors : sum local = 1.3441786e-09, global = 8.3072397e-10, cumulative = -9.7230907e-05
GAMG:  Solving for p, Initial residual = 1.0262432e-06, Final residual = 3.9691285e-07, No Iterations 1
time step continuity errors : sum local = 1.1738074e-09, global = 7.0991072e-10, cumulative = -9.7230197e-05
GAMG:  Solving for p, Initial residual = 9.5049321e-07, Final residual = 9.5049321e-07, No Iterations 0
time step continuity errors : sum local = 2.8104549e-09, global = 1.3664814e-09, cumulative = -9.722883e-05
smoothSolver:  Solving for sigmaxx, Initial residual = 8.037396e-05, Final residual = 1.9829918e-08, No Iterations 1
smoothSolver:  Solving for sigmaxy, Initial residual = 6.0607423e-05, Final residual = 9.1348109e-09, No Iterations 1
smoothSolver:  Solving for sigmayy, Initial residual = 0.00012401595, Final residual = 1.5534895e-08, No Iterations 1
smoothSolver:  Solving for sigmazz, Initial residual = 0, Final residual = 0, No Iterations 0
PIMPLE: iteration 11
GAMG:  Solving for p, Initial residual = 1.5597374e-06, Final residual = 6.9183903e-07, No Iterations 1
time step continuity errors : sum local = 2.045657e-09, global = 1.1908114e-09, cumulative = -9.722764e-05
[...]
time step continuity errors : sum local = 4.6315979e-10, global = 3.0877363e-10, cumulative = 8.5992098e-05
GAMG:  Solving for p, Initial residual = 4.9693879e-06, Final residual = 6.6543691e-07, No Iterations 2
time step continuity errors : sum local = 6.0117533e-10, global = 3.75843e-10, cumulative = 8.5992474e-05
GAMG:  Solving for p, Initial residual = 5.1292005e-06, Final residual = 7.7069635e-07, No Iterations 2
time step continuity errors : sum local = 6.9685947e-10, global = 4.3376408e-10, cumulative = 8.5992908e-05
smoothSolver:  Solving for sigmaxx, Initial residual = 0.00017996996, Final residual = 4.2435527e-09, No Iterations 1
smoothSolver:  Solving for sigmaxy, Initial residual = 0.00013417119, Final residual = 1.3104847e-09, No Iterations 1
smoothSolver:  Solving for sigmayy, Initial residual = 0.00014044676, Final residual = 1.7204259e-09, No Iterations 1
smoothSolver:  Solving for sigmazz, Initial residual = 0, Final residual = 0, No Iterations 0
PIMPLE: iteration 14
GAMG:  Solving for p, Initial residual = 4.1177987e-06, Final residual = 7.0944204e-07, No Iterations 2
time step continuity errors : sum local = 6.4210531e-10, global = 4.0636529e-10, cumulative = 8.5993314e-05
GAMG:  Solving for p, Initial residual = 4.0225071e-06, Final residual = 6.0820363e-07, No Iterations 2
time step continuity errors : sum local = 5.5098251e-10, global = 3.4852799e-10, cumulative = 8.5993663e-05
GAMG:  Solving for p, Initial residual = 3.9710941e-06, Final residual = 5.2513866e-07, No Iterations 2
time step continuity errors : sum local = 4.7610776e-10, global = 2.9859714e-10, cumulative = 8.5993962e-05
smoothSolver:  Solving for sigmaxx, Initial residual = 0.00012899457, Final residual = 3.1060615e-09, No Iterations 1
smoothSolver:  Solving for sigmaxy, Initial residual = 9.4815971e-05, Final residual = 1.4433597e-09, No Iterations 1
smoothSolver:  Solving for sigmayy, Initial residual = 9.9573511e-05, Final residual = 1.4364826e-09, No Iterations 1
smoothSolver:  Solving for sigmazz, Initial residual = 0, Final residual = 0, No Iterations 0
PIMPLE: iteration 15
GAMG:  Solving for p, Initial residual = 3.0985021e-06, Final residual = 9.1407406e-07, No Iterations 1
time step continuity errors : sum local = 8.2928996e-10, global = 4.8115614e-10, cumulative = 8.5994443e-05
GAMG:  Solving for p, Initial residual = 3.4878803e-06, Final residual = 6.4167857e-07, No Iterations 2
time step continuity errors : sum local = 5.823842e-10, global = 3.6338475e-10, cumulative = 8.5994806e-05
GAMG:  Solving for p, Initial residual = 3.1904124e-06, Final residual = 7.3730611e-07, No Iterations 1
time step continuity errors : sum local = 6.6972865e-10, global = 4.0416593e-10, cumulative = 8.599521e-05
smoothSolver:  Solving for sigmaxx, Initial residual = 9.2376107e-05, Final residual = 2.2435695e-09, No Iterations 1
smoothSolver:  Solving for sigmaxy, Initial residual = 6.6913464e-05, Final residual = 7.2532448e-10, No Iterations 1
smoothSolver:  Solving for sigmayy, Initial residual = 7.0433519e-05, Final residual = 9.2626115e-10, No Iterations 1
smoothSolver:  Solving for sigmazz, Initial residual = 0, Final residual = 0, No Iterations 0
Flowrate for "right" : -0.00015450753
Pressure: -6809.8145 Pa
ExecutionTime = 12.91 s  ClockTime = 13 s

Courant Number mean: 0.015480194 max: 0.022517878
Time = 10

Unsteady WK Model Chosen.

PIMPLE: iteration 1
GAMG:  Solving for p, Initial residual = 0.58389453, Final residual = 0.022492983, No Iterations 2
time step continuity errors : sum local = 4.8703336e-05, global = -1.747299e-05, cumulative = 6.8522221e-05
GAMG:  Solving for p, Initial residual = 0.0041751472, Final residual = 0.00017133974, No Iterations 3
time step continuity errors : sum local = 5.2380383e-06, global = 3.5374224e-06, cumulative = 7.2059643e-05
GAMG:  Solving for p, Initial residual = 0.0017693503, Final residual = 5.2811718e-07, No Iterations 12
time step continuity errors : sum local = 1.164971e-08, global = 9.8260318e-09, cumulative = 7.2069469e-05
smoothSolver:  Solving for sigmaxx, Initial residual = 0.05067731, Final residual = 3.7985964e-08, No Iterations 1
smoothSolver:  Solving for sigmaxy, Initial residual = 0.03229277, Final residual = 2.248673e-08, No Iterations 1
smoothSolver:  Solving for sigmayy, Initial residual = 0.031539381, Final residual = 1.7985755e-08, No Iterations 1
smoothSolver:  Solving for sigmazz, Initial residual = 0, Final residual = 0, No Iterations 0
PIMPLE: iteration 2
GAMG:  Solving for p, Initial residual = 0.017770823, Final residual = 0.00049140572, No Iterations 3
time step continuity errors : sum local = 5.1707395e-07, global = -3.8320128e-07, cumulative = 7.1686268e-05
GAMG:  Solving for p, Initial residual = 0.0084684336, Final residual = 0.00027976558, No Iterations 2
time step continuity errors : sum local = 1.6950475e-07, global = -1.4187208e-07, cumulative = 7.1544396e-05
GAMG:  Solving for p, Initial residual = 0.0011411143, Final residual = 5.0089131e-07, No Iterations 10
time step continuity errors : sum local = 4.2959399e-10, global = 3.4734811e-10, cumulative = 7.1544743e-05
smoothSolver:  Solving for sigmaxx, Initial residual = 0.0097073824, Final residual = 2.5470709e-09, No Iterations 1
smoothSolver:  Solving for sigmaxy, Initial residual = 0.0071069992, Final residual = 2.0412887e-09, No Iterations 1
smoothSolver:  Solving for sigmayy, Initial residual = 0.010844662, Final residual = 2.4044584e-09, No Iterations 1
smoothSolver:  Solving for sigmazz, Initial residual = 0, Final residual = 0, No Iterations 0
PIMPLE: iteration 3
GAMG:  Solving for p, Initial residual = 0.0034531873, Final residual = 0.00013865235, No Iterations 2
time step continuity errors : sum local = 9.1249857e-08, global = 6.9225961e-08, cumulative = 7.1613969e-05
GAMG:  Solving for p, Initial residual = 0.0016402, Final residual = 4.1264686e-05, No Iterations 4
time step continuity errors : sum local = 2.1683166e-08, global = 1.6468677e-08, cumulative = 7.1630438e-05
GAMG:  Solving for p, Initial residual = 0.00092907925, Final residual = 5.0764478e-07, No Iterations 9
time step continuity errors : sum local = 1.8776412e-10, global = 1.4417266e-10, cumulative = 7.1630582e-05
smoothSolver:  Solving for sigmaxx, Initial residual = 0.0062459689, Final residual = 7.6472298e-10, No Iterations 1
smoothSolver:  Solving for sigmaxy, Initial residual = 0.0049036703, Final residual = 4.6771209e-10, No Iterations 1
smoothSolver:  Solving for sigmayy, Initial residual = 0.0059620095, Final residual = 6.1282799e-10, No Iterations 1
smoothSolver:  Solving for sigmazz, Initial residual = 0, Final residual = 0, No Iterations 0
PIMPLE: iteration 4
GAMG:  Solving for p, Initial residual = 0.0014237651, Final residual = 3.6531694e-05, No Iterations 3
time step continuity errors : sum local = 1.2069143e-08, global = 7.2867768e-09, cumulative = 7.1637869e-05
GAMG:  Solving for p, Initial residual = 0.00080360114, Final residual = 2.4565903e-05, No Iterations 4
time step continuity errors : sum local = 7.2972003e-09, global = 5.081438e-09, cumulative = 7.164295e-05
GAMG:  Solving for p, Initial residual = 0.00061893862, Final residual = 6.0818555e-07, No Iterations 9
time step continuity errors : sum local = 1.5132475e-10, global = 1.222554e-10, cumulative = 7.1643072e-05
smoothSolver:  Solving for sigmaxx, Initial residual = 0.0041364243, Final residual = 2.7823948e-10, No Iterations 1
smoothSolver:  Solving for sigmaxy, Initial residual = 0.0034069199, Final residual = 1.5310131e-10, No Iterations 1
smoothSolver:  Solving for sigmayy, Initial residual = 0.0037456354, Final residual = 2.0113189e-10, No Iterations 1
smoothSolver:  Solving for sigmazz, Initial residual = 0, Final residual = 0, No Iterations 0
PIMPLE: iteration 5
GAMG:  Solving for p, Initial residual = 0.00062127287, Final residual = 1.7283597e-05, No Iterations 4
time step continuity errors : sum local = 3.6850863e-09, global = 2.4837869e-09, cumulative = 7.1645556e-05
GAMG:  Solving for p, Initial residual = 0.00054925668, Final residual = 2.0472898e-05, No Iterations 4
time step continuity errors : sum local = 3.8935841e-09, global = 2.7133124e-09, cumulative = 7.1648269e-05
GAMG:  Solving for p, Initial residual = 0.00057401128, Final residual = 5.8236795e-07, No Iterations 9
time step continuity errors : sum local = 9.582987e-11, global = 7.7263133e-11, cumulative = 7.1648347e-05
smoothSolver:  Solving for sigmaxx, Initial residual = 0.0028742179, Final residual = 1.0962373e-10, No Iterations 1
smoothSolver:  Solving for sigmaxy, Initial residual = 0.0023887487, Final residual = 5.2209128e-11, No Iterations 1
smoothSolver:  Solving for sigmayy, Initial residual = 0.002516623, Final residual = 6.980344e-11, No Iterations 1
smoothSolver:  Solving for sigmazz, Initial residual = 0, Final residual = 0, No Iterations 0
PIMPLE: iteration 6
GAMG:  Solving for p, Initial residual = 0.00045204651, Final residual = 1.6282758e-05, No Iterations 4
time step continuity errors : sum local = 2.3125398e-09, global = 1.5568841e-09, cumulative = 7.1649904e-05
GAMG:  Solving for p, Initial residual = 0.00049379903, Final residual = 1.9266231e-05, No Iterations 4
time step continuity errors : sum local = 2.4564534e-09, global = 1.7097785e-09, cumulative = 7.1651613e-05
GAMG:  Solving for p, Initial residual = 0.00052929343, Final residual = 5.5246298e-07, No Iterations 9
time step continuity errors : sum local = 6.150707e-11, global = 4.9566458e-11, cumulative = 7.1651663e-05
smoothSolver:  Solving for sigmaxx, Initial residual = 0.0020383912, Final residual = 4.2850069e-11, No Iterations 1
smoothSolver:  Solving for sigmaxy, Initial residual = 0.0016804769, Final residual = 1.8079246e-11, No Iterations 1
smoothSolver:  Solving for sigmayy, Initial residual = 0.0017259153, Final residual = 2.4724041e-11, No Iterations 1
smoothSolver:  Solving for sigmazz, Initial residual = 0, Final residual = 0, No Iterations 0
PIMPLE: iteration 7
GAMG:  Solving for p, Initial residual = 0.00043025652, Final residual = 1.5617034e-05, No Iterations 4
time step continuity errors : sum local = 1.5129994e-09, global = 1.0186622e-09, cumulative = 7.1652682e-05
GAMG:  Solving for p, Initial residual = 0.00045796246, Final residual = 1.8550503e-05, No Iterations 4
time step continuity errors : sum local = 1.6207943e-09, global = 1.1265073e-09, cumulative = 7.1653808e-05
GAMG:  Solving for p, Initial residual = 0.0005099939, Final residual = 5.350439e-07, No Iterations 9
time step continuity errors : sum local = 4.1042665e-11, global = 3.3060244e-11, cumulative = 7.1653841e-05
smoothSolver:  Solving for sigmaxx, Initial residual = 0.0014543113, Final residual = 1.6561469e-11, No Iterations 1
smoothSolver:  Solving for sigmaxy, Initial residual = 0.0011846754, Final residual = 6.4702144e-12, No Iterations 1
smoothSolver:  Solving for sigmayy, Initial residual = 0.0011998964, Final residual = 8.8639423e-12, No Iterations 1
smoothSolver:  Solving for sigmazz, Initial residual = 0, Final residual = 0, No Iterations 0
PIMPLE: iteration 8
GAMG:  Solving for p, Initial residual = 0.00039289522, Final residual = 1.5225653e-05, No Iterations 4
time step continuity errors : sum local = 1.0211667e-09, global = 6.8654402e-10, cumulative = 7.1654528e-05
GAMG:  Solving for p, Initial residual = 0.00044541861, Final residual = 1.8133061e-05, No Iterations 4
time step continuity errors : sum local = 1.0997287e-09, global = 7.6316663e-10, cumulative = 7.1655291e-05
GAMG:  Solving for p, Initial residual = 0.00049462834, Final residual = 5.2490416e-07, No Iterations 9
time step continuity errors : sum local = 2.8037772e-11, global = 2.2575024e-11, cumulative = 7.1655313e-05
smoothSolver:  Solving for sigmaxx, Initial residual = 0.0010421612, Final residual = 6.0606928e-12, No Iterations 1
smoothSolver:  Solving for sigmaxy, Initial residual = 0.00083593719, Final residual = 2.4623655e-12, No Iterations 1
smoothSolver:  Solving for sigmayy, Initial residual = 0.0008406464, Final residual = 3.2874574e-12, No Iterations 1
smoothSolver:  Solving for sigmazz, Initial residual = 0, Final residual = 0, No Iterations 0
PIMPLE: iteration 9
GAMG:  Solving for p, Initial residual = 0.00039362344, Final residual = 1.4998518e-05, No Iterations 4
time step continuity errors : sum local = 7.0239637e-10, global = 4.7158462e-10, cumulative = 7.1655785e-05
GAMG:  Solving for p, Initial residual = 0.00043351587, Final residual = 1.7891008e-05, No Iterations 4
time step continuity errors : sum local = 7.5881775e-10, global = 5.2572977e-10, cumulative = 7.1656311e-05
GAMG:  Solving for p, Initial residual = 0.00049696394, Final residual = 5.1898475e-07, No Iterations 9
time step continuity errors : sum local = 1.9422668e-11, global = 1.5631635e-11, cumulative = 7.1656326e-05
smoothSolver:  Solving for sigmaxx, Initial residual = 0.00074795835, Final residual = 2.2977004e-12, No Iterations 1
smoothSolver:  Solving for sigmaxy, Initial residual = 0.00059019382, Final residual = 7.3510314e-13, No Iterations 1
smoothSolver:  Solving for sigmayy, Initial residual = 0.00059210366, Final residual = 1.0327097e-12, No Iterations 1
smoothSolver:  Solving for sigmazz, Initial residual = 0, Final residual = 0, No Iterations 0
PIMPLE: iteration 10
GAMG:  Solving for p, Initial residual = 0.00040292828, Final residual = 1.4865761e-05, No Iterations 4
time step continuity errors : sum local = 4.8855648e-10, global = 3.2745712e-10, cumulative = 7.1656654e-05
GAMG:  Solving for p, Initial residual = 0.00044676722, Final residual = 1.775e-05, No Iterations 4
time step continuity errors : sum local = 5.2879871e-10, global = 3.6575952e-10, cumulative = 7.165702e-05
GAMG:  Solving for p, Initial residual = 0.00049928421, Final residual = 5.1550683e-07, No Iterations 9
time step continuity errors : sum local = 1.3566103e-11, global = 1.0913514e-11, cumulative = 7.1657031e-05
smoothSolver:  Solving for sigmaxx, Initial residual = 0.00053698948, Final residual = 8.6199996e-13, No Iterations 1
smoothSolver:  Solving for sigmaxy, Initial residual = 0.00041681029, Final residual = 2.5058227e-13, No Iterations 1
smoothSolver:  Solving for sigmayy, Initial residual = 0.00041811711, Final residual = 3.6325409e-13, No Iterations 1
smoothSolver:  Solving for sigmazz, Initial residual = 0, Final residual = 0, No Iterations 0
PIMPLE: iteration 11
GAMG:  Solving for p, Initial residual = 0.00040929134, Final residual = 1.4787466e-05, No Iterations 4
time step continuity errors : sum local = 3.4205891e-10, global = 2.2887185e-10, cumulative = 7.1657259e-05
GAMG:  Solving for p, Initial residual = 0.00045220226, Final residual = 1.7667355e-05, No Iterations 4
time step continuity errors : sum local = 3.7066273e-10, global = 2.5595151e-10, cumulative = 7.1657515e-05
GAMG:  Solving for p, Initial residual = 0.00051849284, Final residual = 5.1342408e-07, No Iterations 9
time step continuity errors : sum local = 9.5212653e-12, global = 7.6562836e-12, cumulative = 7.1657523e-05
smoothSolver:  Solving for sigmaxx, Initial residual = 0.00038539754, Final residual = 3.1405313e-13, No Iterations 1
smoothSolver:  Solving for sigmaxy, Initial residual = 0.00029441378, Final residual = 8.1875897e-14, No Iterations 1
smoothSolver:  Solving for sigmayy, Initial residual = 0.00029584404, Final residual = 1.1641566e-13, No Iterations 1
smoothSolver:  Solving for sigmazz, Initial residual = 0, Final residual = 0, No Iterations 0
PIMPLE: iteration 12
GAMG:  Solving for p, Initial residual = 0.00044164548, Final residual = 1.4740487e-05, No Iterations 4
time step continuity errors : sum local = 2.4042017e-10, global = 1.6057566e-10, cumulative = 7.1657684e-05
GAMG:  Solving for p, Initial residual = 0.00049199917, Final residual = 1.7617234e-05, No Iterations 4
time step continuity errors : sum local = 2.6070219e-10, global = 1.7972673e-10, cumulative = 7.1657863e-05
GAMG:  Solving for p, Initial residual = 0.00055112718, Final residual = 5.1212612e-07, No Iterations 9
time step continuity errors : sum local = 6.7015393e-12, global = 5.38663e-12, cumulative = 7.1657869e-05
smoothSolver:  Solving for sigmaxx, Initial residual = 0.00027658042, Final residual = 1.1653865e-13, No Iterations 1
smoothSolver:  Solving for sigmaxy, Initial residual = 0.00020797744, Final residual = 3.7559197e-14, No Iterations 1
smoothSolver:  Solving for sigmayy, Initial residual = 0.00020944543, Final residual = 4.5514149e-14, No Iterations 1
smoothSolver:  Solving for sigmazz, Initial residual = 0, Final residual = 0, No Iterations 0
PIMPLE: iteration 13
GAMG:  Solving for p, Initial residual = 0.00047984287, Final residual = 1.4710053e-05, No Iterations 4
time step continuity errors : sum local = 1.6936143e-10, global = 1.1291526e-10, cumulative = 7.1657982e-05
GAMG:  Solving for p, Initial residual = 0.00053749241, Final residual = 1.7585159e-05, No Iterations 4
time step continuity errors : sum local = 1.8373364e-10, global = 1.2645975e-10, cumulative = 7.1658108e-05
GAMG:  Solving for p, Initial residual = 0.00062387772, Final residual = 5.1122423e-07, No Iterations 9
time step continuity errors : sum local = 4.7246335e-12, global = 3.7960509e-12, cumulative = 7.1658112e-05
smoothSolver:  Solving for sigmaxx, Initial residual = 0.0001985475, Final residual = 4.2423505e-14, No Iterations 1
smoothSolver:  Solving for sigmaxy, Initial residual = 0.00014692757, Final residual = 1.5418965e-14, No Iterations 1
smoothSolver:  Solving for sigmayy, Initial residual = 0.00014841715, Final residual = 1.5820721e-14, No Iterations 1
smoothSolver:  Solving for sigmazz, Initial residual = 0, Final residual = 0, No Iterations 0
PIMPLE: iteration 14
GAMG:  Solving for p, Initial residual = 0.00056470438, Final residual = 1.4688505e-05, No Iterations 4
time step continuity errors : sum local = 1.1946762e-10, global = 7.9509646e-11, cumulative = 7.1658191e-05
GAMG:  Solving for p, Initial residual = 0.00062530254, Final residual = 1.7560877e-05, No Iterations 4
time step continuity errors : sum local = 1.296388e-10, global = 8.9088947e-11, cumulative = 7.165828e-05
GAMG:  Solving for p, Initial residual = 0.00070791527, Final residual = 5.1050669e-07, No Iterations 9
time step continuity errors : sum local = 3.3342631e-12, global = 2.67789e-12, cumulative = 7.1658283e-05
smoothSolver:  Solving for sigmaxx, Initial residual = 0.00014253823, Final residual = 1.5425819e-14, No Iterations 1
smoothSolver:  Solving for sigmaxy, Initial residual = 0.00010380177, Final residual = 5.0485804e-15, No Iterations 1
smoothSolver:  Solving for sigmayy, Initial residual = 0.00010514875, Final residual = 5.8706512e-15, No Iterations 1
smoothSolver:  Solving for sigmazz, Initial residual = 0, Final residual = 0, No Iterations 0
PIMPLE: iteration 15
GAMG:  Solving for p, Initial residual = 0.00065420928, Final residual = 2.9545004e-05, No Iterations 3
time step continuity errors : sum local = 1.6986022e-10, global = 1.0659791e-10, cumulative = 7.165839e-05
GAMG:  Solving for p, Initial residual = 0.00072512064, Final residual = 1.9300644e-05, No Iterations 4
time step continuity errors : sum local = 1.0148564e-10, global = 7.0094532e-11, cumulative = 7.165846e-05
GAMG:  Solving for p, Initial residual = 0.00083766864, Final residual = 9.8554822e-07, No Iterations 8
time step continuity errors : sum local = 4.5195169e-12, global = 3.5491016e-12, cumulative = 7.1658463e-05
smoothSolver:  Solving for sigmaxx, Initial residual = 0.00010240587, Final residual = 5.4880977e-15, No Iterations 1
smoothSolver:  Solving for sigmaxy, Initial residual = 7.3338886e-05, Final residual = 1.4676216e-15, No Iterations 1
smoothSolver:  Solving for sigmayy, Initial residual = 7.4519551e-05, Final residual = 1.9871933e-15, No Iterations 1
smoothSolver:  Solving for sigmazz, Initial residual = 0, Final residual = 0, No Iterations 0
Flowrate for "right" : 8.517864e-12
Pressure: -5238.1187 Pa
ExecutionTime = 13.01 s  ClockTime = 13 s

End

